                                  MODFLOW-2005     
      U.S. GEOLOGICAL SURVEY MODULAR FINITE-DIFFERENCE GROUND-WATER FLOW MODEL
                            VERSION 1.12.00 2/3/2017

 LIST FILE: SUB-Yulin-5.list
                         UNIT    2

 OPENING SUB-Yulin-5.dis
 FILE TYPE:DIS   UNIT   11   STATUS:OLD    
 FORMAT:FORMATTED              ACCESS:SEQUENTIAL          

 OPENING SUB-Yulin-5.bas
 FILE TYPE:BAS6   UNIT   13   STATUS:OLD    
 FORMAT:FORMATTED              ACCESS:SEQUENTIAL          

 OPENING SUB-Yulin-5.bcf
 FILE TYPE:BCF6   UNIT   15   STATUS:OLD    
 FORMAT:FORMATTED              ACCESS:SEQUENTIAL          

 OPENING SUB-Yulin-5.wel
 FILE TYPE:WEL   UNIT   20   STATUS:OLD    
 FORMAT:FORMATTED              ACCESS:SEQUENTIAL          

 OPENING SUB-Yulin-5.rch
 FILE TYPE:RCH   UNIT   19   STATUS:OLD    
 FORMAT:FORMATTED              ACCESS:SEQUENTIAL          

 OPENING SUB-Yulin-5.sub
 FILE TYPE:SUB   UNIT   32   STATUS:OLD    
 FORMAT:FORMATTED              ACCESS:SEQUENTIAL          

 OPENING SUB-Yulin-5.sip
 FILE TYPE:SIP   UNIT   25   STATUS:OLD    
 FORMAT:FORMATTED              ACCESS:SEQUENTIAL          

 OPENING SUB-Yulin-5.oc
 FILE TYPE:OC   UNIT   14   STATUS:OLD    
 FORMAT:FORMATTED              ACCESS:SEQUENTIAL          

 OPENING SUB-Yulin-5.subsidence.hds
 FILE TYPE:DATA(BINARY)   UNIT   41   STATUS:REPLACE
 FORMAT:BINARY                 ACCESS:SEQUENTIAL          

 OPENING SUB-Yulin-5.total_comp.hds
 FILE TYPE:DATA(BINARY)   UNIT   42   STATUS:REPLACE
 FORMAT:BINARY                 ACCESS:SEQUENTIAL          

 OPENING SUB-Yulin-5.nodelay_precon.hds
 FILE TYPE:DATA(BINARY)   UNIT   43   STATUS:REPLACE
 FORMAT:BINARY                 ACCESS:SEQUENTIAL          

 OPENING SUB-Yulin-5.hds
 FILE TYPE:DATA(BINARY)   UNIT   51   STATUS:REPLACE
 FORMAT:BINARY                 ACCESS:SEQUENTIAL          

 OPENING SUB-Yulin-5.ddn
 FILE TYPE:DATA(BINARY)   UNIT   52   STATUS:REPLACE
 FORMAT:BINARY                 ACCESS:SEQUENTIAL          

 BAS -- BASIC PACKAGE, VERSION 7, 5/2/2005 INPUT READ FROM UNIT   13
 
 MODFLOW was compiled using mixed precision
 Precision of REAL variables:           6
 Precision of DOUBLE PRECISION variables:          15

 DISCRETIZATION INPUT DATA READ FROM UNIT   11
 # DIS package for MODFLOW-2005 generated by Flopy 3.6.0
    3 LAYERS         1 ROWS       100 COLUMNS
   11 STRESS PERIOD(S) IN SIMULATION
 MODEL TIME UNIT IS DAYS
 MODEL LENGTH UNIT IS UNDEFINED
  Confining bed flag for each layer:
   0   0   0

                     DELR =   250.000    

                     DELC =   20.0000    

 TOP ELEVATION OF LAYER 1 =   0.00000    



             MODEL LAYER BOTTOM EL. FOR LAYER   1
 READING ON UNIT   11 WITH FORMAT: (100E15.6)          



             MODEL LAYER BOTTOM EL. FOR LAYER   2
 READING ON UNIT   11 WITH FORMAT: (100E15.6)          



             MODEL LAYER BOTTOM EL. FOR LAYER   3
 READING ON UNIT   11 WITH FORMAT: (100E15.6)          


 STRESS PERIOD     LENGTH       TIME STEPS     MULTIPLIER FOR DELT    SS FLAG
 ----------------------------------------------------------------------------
        1         1.000000          1                    1.000         SS
        2         365.3000          6                    1.300         TR
        3         365.3000          6                    1.300         TR
        4         365.3000          6                    1.300         TR
        5         365.3000          6                    1.300         TR
        6         365.3000          6                    1.300         TR
        7         365.3000          6                    1.300         TR
        8         365.3000          6                    1.300         TR
        9         365.3000          6                    1.300         TR
       10         365.3000          6                    1.300         TR
       11         365.3000          6                    1.300         TR

 COMBINED STEADY-STATE AND TRANSIENT SIMULATION



 
 # BAS6 package for MODFLOW-2005 generated by Flopy 3.6.0                        
 THE FREE FORMAT OPTION HAS BEEN SELECTED



                     BOUNDARY ARRAY FOR LAYER   1
 READING ON UNIT   13 WITH FORMAT: (100I10)            



                     BOUNDARY ARRAY FOR LAYER   2
 READING ON UNIT   13 WITH FORMAT: (100I10)            



                     BOUNDARY ARRAY FOR LAYER   3
 READING ON UNIT   13 WITH FORMAT: (100I10)            

 AQUIFER HEAD WILL BE SET TO  -999.99     AT ALL NO-FLOW NODES (IBOUND=0).



                       INITIAL HEAD FOR LAYER   1
 READING ON UNIT   13 WITH FORMAT: (100E15.6)          



                       INITIAL HEAD FOR LAYER   2
 READING ON UNIT   13 WITH FORMAT: (100E15.6)          



                       INITIAL HEAD FOR LAYER   3
 READING ON UNIT   13 WITH FORMAT: (100E15.6)          
 # OC package for MODFLOW-2005 generated by Flopy 3.6.0

 OUTPUT CONTROL IS SPECIFIED ONLY AT TIME STEPS FOR WHICH OUTPUT IS DESIRED
 COMPACT CELL-BY-CELL BUDGET FILES WILL BE WRITTEN
 AUXILIARY DATA WILL BE SAVED IN CELL-BY-CELL BUDGET FILES
 HEAD PRINT FORMAT CODE IS   0    DRAWDOWN PRINT FORMAT CODE IS   0
 HEADS WILL BE SAVED ON UNIT   51    DRAWDOWNS WILL BE SAVED ON UNIT   52

 BCF -- BLOCK-CENTERED FLOW PACKAGE, VERSION 7, 5/2/2005
         INPUT READ FROM UNIT 15
 TRANSIENT SIMULATION
 HEAD AT CELLS THAT CONVERT TO DRY=   0.0000    
 WETTING CAPABILITY IS NOT ACTIVE
      LAYER  LAYER-TYPE CODE     INTERBLOCK T
      --------------------------------------------
         1            1          0 -- HARMONIC    
         2            0          0 -- HARMONIC    
         3            0          0 -- HARMONIC    

 COLUMN TO ROW ANISOTROPY =   1.00000    

     PRIMARY STORAGE COEF =  7.700000E-03 FOR LAYER   1

    HYD. COND. ALONG ROWS =   7.34000     FOR LAYER   1

 VERT HYD COND /THICKNESS =  3.000000E-06 FOR LAYER   1

     PRIMARY STORAGE COEF =  6.560000E-05 FOR LAYER   2



               TRANSMIS. ALONG ROWS FOR LAYER   2
 READING ON UNIT   15 WITH FORMAT: (100E15.6)          

 VERT HYD COND /THICKNESS =  3.000000E-06 FOR LAYER   2

     PRIMARY STORAGE COEF =  2.620000E-04 FOR LAYER   3



               TRANSMIS. ALONG ROWS FOR LAYER   3
 READING ON UNIT   15 WITH FORMAT: (100E15.6)          

 WEL -- WELL PACKAGE, VERSION 7, 5/2/2005 INPUT READ FROM UNIT   20
 # WEL package for MODFLOW-2005 generated by Flopy 3.6.0
 No named parameters
 MAXIMUM OF      1 ACTIVE WELLS AT ONE TIME


     0 Well parameters

 RCH -- RECHARGE PACKAGE, VERSION 7, 5/2/2005 INPUT READ FROM UNIT   19
 # RCH package for MODFLOW-2005 generated by Flopy 3.6.0
 No named parameters
 OPTION 1 -- RECHARGE TO TOP LAYER


     0 Recharge parameters

SUB7 -- SUBSIDENCE PACKAGE, VERSION 7, 03/31/2006 INPUT READ FROM UNIT 32
 # SUB package for MODFLOW-2005 generated by Flopy 3.6.0

         NUMBER OF SYSTEMS OF NO-DELAYED INTERBEDS:  3
              NUMBER OF SYSTEMS OF DELAY INTERBEDS:  2
                          NUMBER OF MATERIAL ZONES:  1
                    NUMBER OF NODES IN EACH STRING: 20
 RESTART INFORMATION WILL NOT BE SAVED FOR DELAY INTERBEDS
 RESTART INFORMATION WILL NOT BE READ FOR DELAY INTERBEDS
 OUTPUT CONTROL RECORDS FOR SUB PACKAGE WILL BE READ.

 MODEL LAYER ASSIGNMENTS FOR EACH OF  3 NO-DELAY SYSTEMS OF INTERBEDS:
    1   2   3

 MODEL LAYER ASSIGNMENTS FOR EACH OF  2 DELAY SYSTEMS OF INTERBEDS:
    1   3

  SYSTEM   1 OF DELAY BEDS:

 NUMBER OF BEDS IN SYSTEM =   7.63500     FOR LAYER   1

  SYSTEM   2 OF DELAY BEDS:

 NUMBER OF BEDS IN SYSTEM =   17.7180     FOR LAYER   3

  SYSTEM   1 OF NO-DELAY BEDS:

    PRECONSOLIDATION HEAD =  -7.00000     FOR LAYER   1

  SYSTEM   1 OF NO-DELAY BEDS:

 ELASTIC INTERBED STORAGE =  2.100000E-04 FOR LAYER   1

  SYSTEM   1 OF NO-DELAY BEDS:



            VIRGIN INTERBED STORAGE FOR LAYER   1
 READING ON UNIT   32 WITH FORMAT: (100E15.6)          

  SYSTEM   1 OF NO-DELAY BEDS:

      STARTING COMPACTION =   0.00000     FOR LAYER   1

  SYSTEM   2 OF NO-DELAY BEDS:

    PRECONSOLIDATION HEAD =  -7.00000     FOR LAYER   2

  SYSTEM   2 OF NO-DELAY BEDS:

 ELASTIC INTERBED STORAGE =  1.500000E-04 FOR LAYER   2

  SYSTEM   2 OF NO-DELAY BEDS:



            VIRGIN INTERBED STORAGE FOR LAYER   2
 READING ON UNIT   32 WITH FORMAT: (100E15.6)          

  SYSTEM   2 OF NO-DELAY BEDS:

      STARTING COMPACTION =   0.00000     FOR LAYER   2

  SYSTEM   3 OF NO-DELAY BEDS:

    PRECONSOLIDATION HEAD =  -7.00000     FOR LAYER   3

  SYSTEM   3 OF NO-DELAY BEDS:

 ELASTIC INTERBED STORAGE =  4.200000E-04 FOR LAYER   3

  SYSTEM   3 OF NO-DELAY BEDS:



            VIRGIN INTERBED STORAGE FOR LAYER   3
 READING ON UNIT   32 WITH FORMAT: (100E15.6)          

  SYSTEM   3 OF NO-DELAY BEDS:

      STARTING COMPACTION =   0.00000     FOR LAYER   3

 MATERIAL PROPERTIES OF INTERBEDS WITH DELAY PROPERTIES

   ZONE        HYDRAULIC           ELASTIC            INELASTIC       
  NUMBER      CONDUCTIVITY     SPECIFIC STORAGE    SPECIFIC STORAGE   
 ---------------------------------------------------------------------
    1        0.10000E-05         0.60000E-05         0.60000E-03

  SYSTEM   1 OF DELAY BEDS:

      DELAY STARTING HEAD =  -7.00000     FOR LAYER   1

  SYSTEM   1 OF DELAY BEDS:

    DELAY PRECOLSOL. HEAD =  -7.00000     FOR LAYER   1

  SYSTEM   1 OF DELAY BEDS:

 DELAY INITIAL COMPACTION =   0.00000     FOR LAYER   1

  SYSTEM   1 OF DELAY BEDS:

 DELAY INTERBED THICKNESS =   5.89400     FOR LAYER   1

  SYSTEM   1 OF DELAY BEDS:

    MATERIAL ZONE INDICES =              1 FOR LAYER   1

  SYSTEM   2 OF DELAY BEDS:

      DELAY STARTING HEAD =  -7.00000     FOR LAYER   3

  SYSTEM   2 OF DELAY BEDS:

    DELAY PRECOLSOL. HEAD =  -7.00000     FOR LAYER   3

  SYSTEM   2 OF DELAY BEDS:

 DELAY INITIAL COMPACTION =   0.00000     FOR LAYER   3

  SYSTEM   2 OF DELAY BEDS:

 DELAY INTERBED THICKNESS =   5.08000     FOR LAYER   3

  SYSTEM   2 OF DELAY BEDS:

    MATERIAL ZONE INDICES =              1 FOR LAYER   3

             SUBSIDENCE PRINT FORMAT IS NUMBER   0
                 UNIT FOR SAVING SUBSIDENCE IS  41
    COMPACTION BY LAYER PRINT FORMAT IS NUMBER   0
        UNIT FOR SAVING COMPACTION BY LAYER IS  42
   COMPACTION BY SYSTEM PRINT FORMAT IS NUMBER   0
       UNIT FOR SAVING COMPACTION BY SYSTEM IS  42
  VERTICAL DISPLACEMENT PRINT FORMAT IS NUMBER   0
      UNIT FOR SAVING VERTICAL DISPLACEMENT IS  41
 NO-DELAY CRITICAL HEAD PRINT FORMAT IS NUMBER   0
     UNIT FOR SAVING NO-DELAY CRITICAL HEAD IS  43
    DELAY CRITICAL HEAD PRINT FORMAT IS NUMBER   0
        UNIT FOR SAVING DELAY CRITICAL HEAD IS  43

 SIP -- STRONGLY-IMPLICIT PROCEDURE SOLUTION PACKAGE
                    VERSION 7, 5/2/2005 INPUT READ FROM UNIT   25
 # SIP package for MODFLOW-2005 generated by Flopy 3.6.0
 MAXIMUM OF 120 ITERATIONS ALLOWED FOR CLOSURE
  5 ITERATION PARAMETERS

          SOLUTION BY THE STRONGLY IMPLICIT PROCEDURE
          -------------------------------------------
 MAXIMUM ITERATIONS ALLOWED FOR CLOSURE =      120
                 ACCELERATION PARAMETER =     1.0000    
      HEAD CHANGE CRITERION FOR CLOSURE =    0.10000E-03
      SIP HEAD CHANGE PRINTOUT INTERVAL =        5

     CALCULATE ITERATION PARAMETERS FROM MODEL CALCULATED WSEED
1
                            STRESS PERIOD NO.    1, LENGTH =   1.000000    
                            -----------------------------------------------

                              NUMBER OF TIME STEPS =     1

                               MULTIPLIER FOR DELT =     1.000

                            INITIAL TIME STEP SIZE =   1.000000    

 WELL NO.  LAYER   ROW   COL   STRESS RATE         
 --------------------------------------------------
      1      1      1     50     -0.1532E+06

      1 WELL 

                 RECHARGE =  0.136800    
 
 SOLVING FOR HEAD 

 AVERAGE SEED = 0.00007194
 MINIMUM SEED = 0.00000777

     5 ITERATION PARAMETERS CALCULATED FROM AVERAGE SEED:

  0.000000E+00 0.907903E+00 0.991518E+00 0.999219E+00 0.999928E+00

 CELL CONVERSIONS FOR ITER.=  2  LAYER=  1  STEP=  1  PERIOD=  1   (ROW,COL)
    DRY(  1, 27)   DRY(  1, 28)   DRY(  1, 29)   DRY(  1, 30)   DRY(  1, 31)   
    DRY(  1, 32)   DRY(  1, 33)   DRY(  1, 34)   DRY(  1, 35)   DRY(  1, 36)   
    DRY(  1, 37)   DRY(  1, 38)   DRY(  1, 39)   DRY(  1, 40)   DRY(  1, 41)   
    DRY(  1, 42)   DRY(  1, 43)   DRY(  1, 44)   DRY(  1, 45)   DRY(  1, 46)   
    DRY(  1, 47)   DRY(  1, 48)   DRY(  1, 49)   DRY(  1, 50)   DRY(  1, 51)   
    DRY(  1, 52)   DRY(  1, 53)   DRY(  1, 54)   DRY(  1, 55)   DRY(  1, 56)   
    DRY(  1, 57)   DRY(  1, 58)   DRY(  1, 59)   DRY(  1, 60)   DRY(  1, 61)   
    DRY(  1, 62)   DRY(  1, 63)   DRY(  1, 64)   DRY(  1, 65)   DRY(  1, 66)   
    DRY(  1, 67)   DRY(  1, 68)   DRY(  1, 69)   

    31 ITERATIONS FOR TIME STEP   1 IN STRESS PERIOD    1

 MAXIMUM HEAD CHANGE FOR EACH ITERATION:

    HEAD CHANGE   HEAD CHANGE   HEAD CHANGE   HEAD CHANGE   HEAD CHANGE
  LAYER,ROW,COL LAYER,ROW,COL LAYER,ROW,COL LAYER,ROW,COL LAYER,ROW,COL
 ----------------------------------------------------------------------
     -3178.         2178.        -281.5         555.0         576.1    
  (  1,  1, 50) (  1,  1, 70) (  1,  1, 26) (  3,  1,  1) (  3,  1, 93)
     -178.8        -158.1        -190.9        -207.9        -64.87    
  (  2,  1, 73) (  3,  1,100) (  3,  1,  1) (  3,  1, 67) (  2,  1, 70)
      11.43         7.596         4.613         5.667        0.4689    
  (  2,  1,  1) (  3,  1,  1) (  2,  1, 36) (  3,  1,  1) (  3,  1,100)
    -0.1308       -0.7211E-01   -0.8769E-01   -0.6936E-01   -0.3656E-01
  (  3,  1, 73) (  2,  1, 56) (  3,  1,  1) (  3,  1, 53) (  2,  1, 71)
     0.5907E-02    0.4162E-02    0.2860E-02    0.3673E-02   -0.1127E-02
  (  2,  1,  1) (  3,  1,  1) (  2,  1, 37) (  3,  1,  1) (  3,  1, 94)
     0.3336E-03    0.2771E-03    0.3149E-03    0.3506E-03    0.1028E-03
  (  2,  1, 93) (  3,  1,100) (  3,  1,  1) (  3,  1, 68) (  2,  1, 70)
    -0.1835E-04
  (  2,  1,  1)


 OUTPUT CONTROL FOR STRESS PERIOD    1   TIME STEP    1
    SAVE HEAD FOR ALL LAYERS
    SAVE DRAWDOWN FOR ALL LAYERS
    SAVE BUDGET
    PRINT HEAD FOR ALL LAYERS
    PRINT BUDGET
1
              HEAD IN LAYER   1 AT END OF TIME STEP   1 IN STRESS PERIOD    1
  ---------------------------------------------------------------------------

            1           2           3           4           5           6           7           8           9          10
           11          12          13          14          15          16          17          18          19          20
           21          22          23          24          25          26          27          28          29          30
           31          32          33          34          35          36          37          38          39          40
           41          42          43          44          45          46          47          48          49          50
           51          52          53          54          55          56          57          58          59          60
           61          62          63          64          65          66          67          68          69          70
           71          72          73          74          75          76          77          78          79          80
           81          82          83          84          85          86          87          88          89          90
           91          92          93          94          95          96          97          98          99         100
 ........................................................................................................................
   1    10.00       31.68       52.10       71.32       89.40       106.4       122.3       137.3       151.2       164.3    
        176.4       187.6       198.0       207.6       216.3       224.3       231.4       237.8       243.5       248.4    
        252.6       256.1       258.9       260.9       262.3       263.0       0.000       0.000       0.000       0.000    
        0.000       0.000       0.000       0.000       0.000       0.000       0.000       0.000       0.000       0.000    
        0.000       0.000       0.000       0.000       0.000       0.000       0.000       0.000       0.000       0.000    
        0.000       0.000       0.000       0.000       0.000       0.000       0.000       0.000       0.000       0.000    
        0.000       0.000       0.000       0.000       0.000       0.000       0.000       0.000       0.000       294.8    
        294.2       293.0       291.2       288.8       285.9       282.3       278.2       273.4       268.1       262.2    
        255.7       248.5       240.8       232.5       223.5       213.9       203.8       192.9       181.5       169.3    
        156.6       143.1       129.0       114.2       98.68       82.45       65.48       47.77       29.28       10.00    
1
              HEAD IN LAYER   2 AT END OF TIME STEP   1 IN STRESS PERIOD    1
  ---------------------------------------------------------------------------

            1           2           3           4           5           6           7           8           9          10
           11          12          13          14          15          16          17          18          19          20
           21          22          23          24          25          26          27          28          29          30
           31          32          33          34          35          36          37          38          39          40
           41          42          43          44          45          46          47          48          49          50
           51          52          53          54          55          56          57          58          59          60
           61          62          63          64          65          66          67          68          69          70
           71          72          73          74          75          76          77          78          79          80
           81          82          83          84          85          86          87          88          89          90
           91          92          93          94          95          96          97          98          99         100
 ........................................................................................................................
   1    187.1       187.1       187.2       187.3       187.4       187.5       187.7       187.8       188.0       188.1    
        188.3       188.5       188.7       188.8       189.0       189.2       189.3       189.5       189.6       189.7    
        189.8       189.9       190.0       190.1       190.2       190.2       190.3       190.3       190.4       190.4    
        190.4       190.5       190.5       190.5       190.6       190.6       190.7       190.7       190.7       190.8    
        190.8       190.9       190.9       190.9       191.0       191.0       191.1       191.1       191.1       191.2    
        191.2       191.3       191.3       191.4       191.4       191.4       191.5       191.5       191.6       191.6    
        191.6       191.7       191.7       191.8       191.8       191.9       191.9       192.0       192.0       192.0    
        192.1       192.1       192.1       192.0       192.0       191.9       191.8       191.7       191.6       191.5    
        191.4       191.2       191.1       190.9       190.7       190.5       190.3       190.1       189.9       189.8    
        189.6       189.4       189.2       189.1       188.9       188.8       188.7       188.6       188.5       188.5    
1
              HEAD IN LAYER   3 AT END OF TIME STEP   1 IN STRESS PERIOD    1
  ---------------------------------------------------------------------------

            1           2           3           4           5           6           7           8           9          10
           11          12          13          14          15          16          17          18          19          20
           21          22          23          24          25          26          27          28          29          30
           31          32          33          34          35          36          37          38          39          40
           41          42          43          44          45          46          47          48          49          50
           51          52          53          54          55          56          57          58          59          60
           61          62          63          64          65          66          67          68          69          70
           71          72          73          74          75          76          77          78          79          80
           81          82          83          84          85          86          87          88          89          90
           91          92          93          94          95          96          97          98          99         100
 ........................................................................................................................
   1    190.1       190.1       190.1       190.1       190.1       190.1       190.1       190.1       190.1       190.1    
        190.1       190.1       190.1       190.1       190.1       190.1       190.1       190.1       190.2       190.2    
        190.2       190.2       190.2       190.2       190.2       190.2       190.2       190.2       190.2       190.2    
        190.2       190.2       190.3       190.3       190.3       190.3       190.3       190.3       190.3       190.3    
        190.3       190.3       190.3       190.3       190.3       190.3       190.3       190.3       190.4       190.4    
        190.4       190.4       190.4       190.4       190.4       190.4       190.4       190.4       190.4       190.4    
        190.4       190.4       190.4       190.4       190.4       190.4       190.4       190.4       190.4       190.4    
        190.4       190.4       190.4       190.4       190.4       190.4       190.4       190.4       190.4       190.4    
        190.4       190.4       190.4       190.4       190.4       190.4       190.4       190.4       190.4       190.4    
        190.4       190.4       190.4       190.4       190.4       190.4       190.4       190.4       190.4       190.4    

 HEAD WILL BE SAVED ON UNIT   51 AT END OF TIME STEP    1, STRESS PERIOD    1

 DRAWDOWN WILL BE SAVED ON UNIT   52 AT END OF TIME STEP    1, STRESS PERIOD    1
1
  VOLUMETRIC BUDGET FOR ENTIRE MODEL AT END OF TIME STEP    1, STRESS PERIOD   1
  ------------------------------------------------------------------------------

     CUMULATIVE VOLUMES      L**3       RATES FOR THIS TIME STEP      L**3/T
     ------------------                 ------------------------

           IN:                                      IN:
           ---                                      ---
             STORAGE =           0.0000               STORAGE =           0.0000
       CONSTANT HEAD =           0.0000         CONSTANT HEAD =           0.0000
               WELLS =           0.0000                 WELLS =           0.0000
            RECHARGE =       37620.0000              RECHARGE =       37620.0000
    INST. IB STORAGE =           0.0000      INST. IB STORAGE =           0.0000
    DELAY IB STORAGE =           0.0000      DELAY IB STORAGE =           0.0000

            TOTAL IN =       37620.0000              TOTAL IN =       37620.0000

          OUT:                                     OUT:
          ----                                     ----
             STORAGE =           0.0000               STORAGE =           0.0000
       CONSTANT HEAD =       37620.0000         CONSTANT HEAD =       37620.0000
               WELLS =           0.0000                 WELLS =           0.0000
            RECHARGE =           0.0000              RECHARGE =           0.0000
    INST. IB STORAGE =           0.0000      INST. IB STORAGE =           0.0000
    DELAY IB STORAGE =           0.0000      DELAY IB STORAGE =           0.0000

           TOTAL OUT =       37620.0000             TOTAL OUT =       37620.0000

            IN - OUT =           0.0000              IN - OUT =           0.0000

 PERCENT DISCREPANCY =           0.00     PERCENT DISCREPANCY =           0.00






         TIME SUMMARY AT END OF TIME STEP    1 IN STRESS PERIOD    1
                    SECONDS     MINUTES      HOURS       DAYS        YEARS
                    -----------------------------------------------------------
   TIME STEP LENGTH  86400.      1440.0      24.000      1.0000     2.73785E-03
 STRESS PERIOD TIME  86400.      1440.0      24.000      1.0000     2.73785E-03
         TOTAL TIME  86400.      1440.0      24.000      1.0000     2.73785E-03
1
1
                            STRESS PERIOD NO.    2, LENGTH =   365.3000    
                            -----------------------------------------------

                              NUMBER OF TIME STEPS =     6

                               MULTIPLIER FOR DELT =     1.300

                            INITIAL TIME STEP SIZE =   28.63744    

 WELL NO.  LAYER   ROW   COL   STRESS RATE         
 --------------------------------------------------
      1      1      1     50     -0.1532E+06

      1 WELL 

 REUSING RECH FROM LAST STRESS PERIOD
 
 SOLVING FOR HEAD 

     2 ITERATIONS FOR TIME STEP   1 IN STRESS PERIOD    2

 OUTPUT CONTROL FOR STRESS PERIOD    2   TIME STEP    1
    SAVE HEAD FOR ALL LAYERS
    SAVE DRAWDOWN FOR ALL LAYERS
    SAVE BUDGET
    PRINT HEAD FOR ALL LAYERS
    PRINT BUDGET
1
              HEAD IN LAYER   1 AT END OF TIME STEP   1 IN STRESS PERIOD    2
  ---------------------------------------------------------------------------

            1           2           3           4           5           6           7           8           9          10
           11          12          13          14          15          16          17          18          19          20
           21          22          23          24          25          26          27          28          29          30
           31          32          33          34          35          36          37          38          39          40
           41          42          43          44          45          46          47          48          49          50
           51          52          53          54          55          56          57          58          59          60
           61          62          63          64          65          66          67          68          69          70
           71          72          73          74          75          76          77          78          79          80
           81          82          83          84          85          86          87          88          89          90
           91          92          93          94          95          96          97          98          99         100
 ........................................................................................................................
   1    10.00       31.68       52.10       71.32       89.40       106.4       122.3       137.3       151.2       164.3    
        176.4       187.6       198.0       207.6       216.3       224.3       231.4       237.8       243.5       248.4    
        252.6       256.1       258.9       260.9       262.3       263.0       0.000       0.000       0.000       0.000    
        0.000       0.000       0.000       0.000       0.000       0.000       0.000       0.000       0.000       0.000    
        0.000       0.000       0.000       0.000       0.000       0.000       0.000       0.000       0.000       0.000    
        0.000       0.000       0.000       0.000       0.000       0.000       0.000       0.000       0.000       0.000    
        0.000       0.000       0.000       0.000       0.000       0.000       0.000       0.000       0.000       294.8    
        294.2       293.0       291.2       288.8       285.9       282.3       278.2       273.4       268.1       262.2    
        255.7       248.5       240.8       232.5       223.5       213.9       203.8       192.9       181.5       169.3    
        156.6       143.1       129.0       114.2       98.68       82.45       65.48       47.77       29.28       10.00    
1
              HEAD IN LAYER   2 AT END OF TIME STEP   1 IN STRESS PERIOD    2
  ---------------------------------------------------------------------------

            1           2           3           4           5           6           7           8           9          10
           11          12          13          14          15          16          17          18          19          20
           21          22          23          24          25          26          27          28          29          30
           31          32          33          34          35          36          37          38          39          40
           41          42          43          44          45          46          47          48          49          50
           51          52          53          54          55          56          57          58          59          60
           61          62          63          64          65          66          67          68          69          70
           71          72          73          74          75          76          77          78          79          80
           81          82          83          84          85          86          87          88          89          90
           91          92          93          94          95          96          97          98          99         100
 ........................................................................................................................
   1    187.1       187.1       187.2       187.3       187.4       187.5       187.7       187.8       188.0       188.1    
        188.3       188.5       188.7       188.8       189.0       189.2       189.3       189.5       189.6       189.7    
        189.8       189.9       190.0       190.1       190.2       190.2       190.3       190.3       190.4       190.4    
        190.4       190.5       190.5       190.5       190.6       190.6       190.7       190.7       190.7       190.8    
        190.8       190.9       190.9       190.9       191.0       191.0       191.1       191.1       191.1       191.2    
        191.2       191.3       191.3       191.4       191.4       191.4       191.5       191.5       191.6       191.6    
        191.6       191.7       191.7       191.8       191.8       191.9       191.9       192.0       192.0       192.0    
        192.1       192.1       192.1       192.0       192.0       191.9       191.8       191.7       191.6       191.5    
        191.4       191.2       191.1       190.9       190.7       190.5       190.3       190.1       189.9       189.8    
        189.6       189.4       189.2       189.1       188.9       188.8       188.7       188.6       188.5       188.5    
1
              HEAD IN LAYER   3 AT END OF TIME STEP   1 IN STRESS PERIOD    2
  ---------------------------------------------------------------------------

            1           2           3           4           5           6           7           8           9          10
           11          12          13          14          15          16          17          18          19          20
           21          22          23          24          25          26          27          28          29          30
           31          32          33          34          35          36          37          38          39          40
           41          42          43          44          45          46          47          48          49          50
           51          52          53          54          55          56          57          58          59          60
           61          62          63          64          65          66          67          68          69          70
           71          72          73          74          75          76          77          78          79          80
           81          82          83          84          85          86          87          88          89          90
           91          92          93          94          95          96          97          98          99         100
 ........................................................................................................................
   1    190.1       190.1       190.1       190.1       190.1       190.1       190.1       190.1       190.1       190.1    
        190.1       190.1       190.1       190.1       190.1       190.1       190.1       190.1       190.2       190.2    
        190.2       190.2       190.2       190.2       190.2       190.2       190.2       190.2       190.2       190.2    
        190.2       190.2       190.3       190.3       190.3       190.3       190.3       190.3       190.3       190.3    
        190.3       190.3       190.3       190.3       190.3       190.3       190.3       190.3       190.4       190.4    
        190.4       190.4       190.4       190.4       190.4       190.4       190.4       190.4       190.4       190.4    
        190.4       190.4       190.4       190.4       190.4       190.4       190.4       190.4       190.4       190.4    
        190.4       190.4       190.4       190.4       190.4       190.4       190.4       190.4       190.4       190.4    
        190.4       190.4       190.4       190.4       190.4       190.4       190.4       190.4       190.4       190.4    
        190.4       190.4       190.4       190.4       190.4       190.4       190.4       190.4       190.4       190.4    

 HEAD WILL BE SAVED ON UNIT   51 AT END OF TIME STEP    1, STRESS PERIOD    2

 DRAWDOWN WILL BE SAVED ON UNIT   52 AT END OF TIME STEP    1, STRESS PERIOD    2
1
  VOLUMETRIC BUDGET FOR ENTIRE MODEL AT END OF TIME STEP    1, STRESS PERIOD   2
  ------------------------------------------------------------------------------

     CUMULATIVE VOLUMES      L**3       RATES FOR THIS TIME STEP      L**3/T
     ------------------                 ------------------------

           IN:                                      IN:
           ---                                      ---
             STORAGE =       2.9999E-02               STORAGE =       1.0476E-03
       CONSTANT HEAD =           0.0000         CONSTANT HEAD =           0.0000
               WELLS =           0.0000                 WELLS =           0.0000
            RECHARGE =     1114960.5000              RECHARGE =       37620.0000
    INST. IB STORAGE =       4.4449E-02      INST. IB STORAGE =       1.5521E-03
    DELAY IB STORAGE =       1.5700E-02      DELAY IB STORAGE =       5.4823E-04

            TOTAL IN =     1114960.5000              TOTAL IN =       37620.0000

          OUT:                                     OUT:
          ----                                     ----
             STORAGE =       4.6997E-03               STORAGE =       1.6411E-04
       CONSTANT HEAD =     1114960.5000         CONSTANT HEAD =       37620.0000
               WELLS =           0.0000                 WELLS =           0.0000
            RECHARGE =           0.0000              RECHARGE =           0.0000
    INST. IB STORAGE =       1.2207E-04      INST. IB STORAGE =       4.2626E-06
    DELAY IB STORAGE =       8.0807E-02      DELAY IB STORAGE =       2.8217E-03

           TOTAL OUT =     1114960.6250             TOTAL OUT =       37620.0039

            IN - OUT =          -0.1250              IN - OUT =      -3.9062E-03

 PERCENT DISCREPANCY =          -0.00     PERCENT DISCREPANCY =          -0.00






         TIME SUMMARY AT END OF TIME STEP    1 IN STRESS PERIOD    2
                    SECONDS     MINUTES      HOURS       DAYS        YEARS
                    -----------------------------------------------------------
   TIME STEP LENGTH 2.47427E+06  41238.      687.30      28.637     7.84050E-02
 STRESS PERIOD TIME 2.47427E+06  41238.      687.30      28.637     7.84050E-02
         TOTAL TIME 2.56067E+06  42678.      711.30      29.637     8.11429E-02
1
 
 SOLVING FOR HEAD 
     2 ITERATIONS FOR TIME STEP   2 IN STRESS PERIOD    2

 OUTPUT CONTROL FOR STRESS PERIOD    2   TIME STEP    2
    SAVE HEAD FOR ALL LAYERS
    SAVE DRAWDOWN FOR ALL LAYERS
    SAVE BUDGET
    PRINT HEAD FOR ALL LAYERS
    PRINT BUDGET
1
              HEAD IN LAYER   1 AT END OF TIME STEP   2 IN STRESS PERIOD    2
  ---------------------------------------------------------------------------

            1           2           3           4           5           6           7           8           9          10
           11          12          13          14          15          16          17          18          19          20
           21          22          23          24          25          26          27          28          29          30
           31          32          33          34          35          36          37          38          39          40
           41          42          43          44          45          46          47          48          49          50
           51          52          53          54          55          56          57          58          59          60
           61          62          63          64          65          66          67          68          69          70
           71          72          73          74          75          76          77          78          79          80
           81          82          83          84          85          86          87          88          89          90
           91          92          93          94          95          96          97          98          99         100
 ........................................................................................................................
   1    10.00       31.68       52.10       71.32       89.40       106.4       122.3       137.3       151.2       164.3    
        176.4       187.6       198.0       207.6       216.3       224.3       231.4       237.8       243.5       248.4    
        252.6       256.1       258.9       260.9       262.3       263.0       0.000       0.000       0.000       0.000    
        0.000       0.000       0.000       0.000       0.000       0.000       0.000       0.000       0.000       0.000    
        0.000       0.000       0.000       0.000       0.000       0.000       0.000       0.000       0.000       0.000    
        0.000       0.000       0.000       0.000       0.000       0.000       0.000       0.000       0.000       0.000    
        0.000       0.000       0.000       0.000       0.000       0.000       0.000       0.000       0.000       294.8    
        294.2       293.0       291.2       288.8       285.9       282.3       278.2       273.4       268.1       262.2    
        255.7       248.5       240.8       232.5       223.5       213.9       203.8       192.9       181.5       169.3    
        156.6       143.1       129.0       114.2       98.68       82.45       65.48       47.77       29.28       10.00    
1
              HEAD IN LAYER   2 AT END OF TIME STEP   2 IN STRESS PERIOD    2
  ---------------------------------------------------------------------------

            1           2           3           4           5           6           7           8           9          10
           11          12          13          14          15          16          17          18          19          20
           21          22          23          24          25          26          27          28          29          30
           31          32          33          34          35          36          37          38          39          40
           41          42          43          44          45          46          47          48          49          50
           51          52          53          54          55          56          57          58          59          60
           61          62          63          64          65          66          67          68          69          70
           71          72          73          74          75          76          77          78          79          80
           81          82          83          84          85          86          87          88          89          90
           91          92          93          94          95          96          97          98          99         100
 ........................................................................................................................
   1    187.1       187.1       187.2       187.3       187.4       187.5       187.7       187.8       188.0       188.1    
        188.3       188.5       188.7       188.8       189.0       189.2       189.3       189.5       189.6       189.7    
        189.8       189.9       190.0       190.1       190.2       190.2       190.3       190.3       190.4       190.4    
        190.4       190.5       190.5       190.5       190.6       190.6       190.7       190.7       190.7       190.8    
        190.8       190.9       190.9       190.9       191.0       191.0       191.1       191.1       191.1       191.2    
        191.2       191.3       191.3       191.4       191.4       191.4       191.5       191.5       191.6       191.6    
        191.6       191.7       191.7       191.8       191.8       191.9       191.9       192.0       192.0       192.0    
        192.1       192.1       192.1       192.0       192.0       191.9       191.8       191.7       191.6       191.5    
        191.4       191.2       191.1       190.9       190.7       190.5       190.3       190.1       189.9       189.8    
        189.6       189.4       189.2       189.1       188.9       188.8       188.7       188.6       188.5       188.5    
1
              HEAD IN LAYER   3 AT END OF TIME STEP   2 IN STRESS PERIOD    2
  ---------------------------------------------------------------------------

            1           2           3           4           5           6           7           8           9          10
           11          12          13          14          15          16          17          18          19          20
           21          22          23          24          25          26          27          28          29          30
           31          32          33          34          35          36          37          38          39          40
           41          42          43          44          45          46          47          48          49          50
           51          52          53          54          55          56          57          58          59          60
           61          62          63          64          65          66          67          68          69          70
           71          72          73          74          75          76          77          78          79          80
           81          82          83          84          85          86          87          88          89          90
           91          92          93          94          95          96          97          98          99         100
 ........................................................................................................................
   1    190.1       190.1       190.1       190.1       190.1       190.1       190.1       190.1       190.1       190.1    
        190.1       190.1       190.1       190.1       190.1       190.1       190.1       190.1       190.2       190.2    
        190.2       190.2       190.2       190.2       190.2       190.2       190.2       190.2       190.2       190.2    
        190.2       190.2       190.3       190.3       190.3       190.3       190.3       190.3       190.3       190.3    
        190.3       190.3       190.3       190.3       190.3       190.3       190.3       190.3       190.4       190.4    
        190.4       190.4       190.4       190.4       190.4       190.4       190.4       190.4       190.4       190.4    
        190.4       190.4       190.4       190.4       190.4       190.4       190.4       190.4       190.4       190.4    
        190.4       190.4       190.4       190.4       190.4       190.4       190.4       190.4       190.4       190.4    
        190.4       190.4       190.4       190.4       190.4       190.4       190.4       190.4       190.4       190.4    
        190.4       190.4       190.4       190.4       190.4       190.4       190.4       190.4       190.4       190.4    

 HEAD WILL BE SAVED ON UNIT   51 AT END OF TIME STEP    2, STRESS PERIOD    2

 DRAWDOWN WILL BE SAVED ON UNIT   52 AT END OF TIME STEP    2, STRESS PERIOD    2
1
  VOLUMETRIC BUDGET FOR ENTIRE MODEL AT END OF TIME STEP    2, STRESS PERIOD   2
  ------------------------------------------------------------------------------

     CUMULATIVE VOLUMES      L**3       RATES FOR THIS TIME STEP      L**3/T
     ------------------                 ------------------------

           IN:                                      IN:
           ---                                      ---
             STORAGE =       3.3317E-02               STORAGE =       8.9116E-05
       CONSTANT HEAD =           0.0000         CONSTANT HEAD =           0.0000
               WELLS =           0.0000                 WELLS =           0.0000
            RECHARGE =     2515503.0000              RECHARGE =       37620.0000
    INST. IB STORAGE =       4.5258E-02      INST. IB STORAGE =       2.1723E-05
    DELAY IB STORAGE =       8.0665E-02      DELAY IB STORAGE =       1.7450E-03

            TOTAL IN =     2515503.0000              TOTAL IN =       37620.0000

          OUT:                                     OUT:
          ----                                     ----
             STORAGE =       2.3659E-02               STORAGE =       5.0928E-04
       CONSTANT HEAD =     2515503.0000         CONSTANT HEAD =       37620.0000
               WELLS =           0.0000                 WELLS =           0.0000
            RECHARGE =           0.0000              RECHARGE =           0.0000
    INST. IB STORAGE =       2.2202E-02      INST. IB STORAGE =       5.9308E-04
    DELAY IB STORAGE =       8.6521E-02      DELAY IB STORAGE =       1.5348E-04

           TOTAL OUT =     2515503.0000             TOTAL OUT =       37620.0000

            IN - OUT =           0.0000              IN - OUT =           0.0000

 PERCENT DISCREPANCY =           0.00     PERCENT DISCREPANCY =           0.00






         TIME SUMMARY AT END OF TIME STEP    2 IN STRESS PERIOD    2
                    SECONDS     MINUTES      HOURS       DAYS        YEARS
                    -----------------------------------------------------------
   TIME STEP LENGTH 3.21656E+06  53609.      893.49      37.229     0.10193    
 STRESS PERIOD TIME 5.69083E+06  94847.      1580.8      65.866     0.18033    
         TOTAL TIME 5.77723E+06  96287.      1604.8      66.866     0.18307    
1
 
 SOLVING FOR HEAD 
     2 ITERATIONS FOR TIME STEP   3 IN STRESS PERIOD    2

 OUTPUT CONTROL FOR STRESS PERIOD    2   TIME STEP    3
    SAVE HEAD FOR ALL LAYERS
    SAVE DRAWDOWN FOR ALL LAYERS
    SAVE BUDGET
    PRINT HEAD FOR ALL LAYERS
    PRINT BUDGET
1
              HEAD IN LAYER   1 AT END OF TIME STEP   3 IN STRESS PERIOD    2
  ---------------------------------------------------------------------------

            1           2           3           4           5           6           7           8           9          10
           11          12          13          14          15          16          17          18          19          20
           21          22          23          24          25          26          27          28          29          30
           31          32          33          34          35          36          37          38          39          40
           41          42          43          44          45          46          47          48          49          50
           51          52          53          54          55          56          57          58          59          60
           61          62          63          64          65          66          67          68          69          70
           71          72          73          74          75          76          77          78          79          80
           81          82          83          84          85          86          87          88          89          90
           91          92          93          94          95          96          97          98          99         100
 ........................................................................................................................
   1    10.00       31.68       52.10       71.32       89.40       106.4       122.3       137.3       151.2       164.3    
        176.4       187.6       198.0       207.6       216.3       224.3       231.4       237.8       243.5       248.4    
        252.6       256.1       258.9       260.9       262.3       263.0       0.000       0.000       0.000       0.000    
        0.000       0.000       0.000       0.000       0.000       0.000       0.000       0.000       0.000       0.000    
        0.000       0.000       0.000       0.000       0.000       0.000       0.000       0.000       0.000       0.000    
        0.000       0.000       0.000       0.000       0.000       0.000       0.000       0.000       0.000       0.000    
        0.000       0.000       0.000       0.000       0.000       0.000       0.000       0.000       0.000       294.8    
        294.2       293.0       291.2       288.8       285.9       282.3       278.2       273.4       268.1       262.2    
        255.7       248.5       240.8       232.5       223.5       213.9       203.8       192.9       181.5       169.3    
        156.6       143.1       129.0       114.2       98.68       82.45       65.48       47.77       29.28       10.00    
1
              HEAD IN LAYER   2 AT END OF TIME STEP   3 IN STRESS PERIOD    2
  ---------------------------------------------------------------------------

            1           2           3           4           5           6           7           8           9          10
           11          12          13          14          15          16          17          18          19          20
           21          22          23          24          25          26          27          28          29          30
           31          32          33          34          35          36          37          38          39          40
           41          42          43          44          45          46          47          48          49          50
           51          52          53          54          55          56          57          58          59          60
           61          62          63          64          65          66          67          68          69          70
           71          72          73          74          75          76          77          78          79          80
           81          82          83          84          85          86          87          88          89          90
           91          92          93          94          95          96          97          98          99         100
 ........................................................................................................................
   1    187.1       187.1       187.2       187.3       187.4       187.5       187.7       187.8       188.0       188.1    
        188.3       188.5       188.7       188.8       189.0       189.2       189.3       189.5       189.6       189.7    
        189.8       189.9       190.0       190.1       190.2       190.2       190.3       190.3       190.4       190.4    
        190.4       190.5       190.5       190.5       190.6       190.6       190.7       190.7       190.7       190.8    
        190.8       190.9       190.9       190.9       191.0       191.0       191.1       191.1       191.1       191.2    
        191.2       191.3       191.3       191.4       191.4       191.4       191.5       191.5       191.6       191.6    
        191.6       191.7       191.7       191.8       191.8       191.9       191.9       192.0       192.0       192.0    
        192.1       192.1       192.1       192.0       192.0       191.9       191.8       191.7       191.6       191.5    
        191.4       191.2       191.1       190.9       190.7       190.5       190.3       190.1       189.9       189.8    
        189.6       189.4       189.2       189.1       188.9       188.8       188.7       188.6       188.5       188.5    
1
              HEAD IN LAYER   3 AT END OF TIME STEP   3 IN STRESS PERIOD    2
  ---------------------------------------------------------------------------

            1           2           3           4           5           6           7           8           9          10
           11          12          13          14          15          16          17          18          19          20
           21          22          23          24          25          26          27          28          29          30
           31          32          33          34          35          36          37          38          39          40
           41          42          43          44          45          46          47          48          49          50
           51          52          53          54          55          56          57          58          59          60
           61          62          63          64          65          66          67          68          69          70
           71          72          73          74          75          76          77          78          79          80
           81          82          83          84          85          86          87          88          89          90
           91          92          93          94          95          96          97          98          99         100
 ........................................................................................................................
   1    190.1       190.1       190.1       190.1       190.1       190.1       190.1       190.1       190.1       190.1    
        190.1       190.1       190.1       190.1       190.1       190.1       190.1       190.2       190.2       190.2    
        190.2       190.2       190.2       190.2       190.2       190.2       190.2       190.2       190.2       190.2    
        190.2       190.2       190.3       190.3       190.3       190.3       190.3       190.3       190.3       190.3    
        190.3       190.3       190.3       190.3       190.3       190.3       190.3       190.3       190.4       190.4    
        190.4       190.4       190.4       190.4       190.4       190.4       190.4       190.4       190.4       190.4    
        190.4       190.4       190.4       190.4       190.4       190.4       190.4       190.4       190.4       190.4    
        190.4       190.4       190.4       190.4       190.4       190.4       190.4       190.4       190.4       190.4    
        190.4       190.4       190.4       190.4       190.4       190.4       190.4       190.4       190.4       190.4    
        190.4       190.4       190.4       190.4       190.4       190.4       190.4       190.4       190.4       190.4    

 HEAD WILL BE SAVED ON UNIT   51 AT END OF TIME STEP    3, STRESS PERIOD    2

 DRAWDOWN WILL BE SAVED ON UNIT   52 AT END OF TIME STEP    3, STRESS PERIOD    2
1
  VOLUMETRIC BUDGET FOR ENTIRE MODEL AT END OF TIME STEP    3, STRESS PERIOD   2
  ------------------------------------------------------------------------------

     CUMULATIVE VOLUMES      L**3       RATES FOR THIS TIME STEP      L**3/T
     ------------------                 ------------------------

           IN:                                      IN:
           ---                                      ---
             STORAGE =       3.6254E-02               STORAGE =       6.0692E-05
       CONSTANT HEAD =           0.0000         CONSTANT HEAD =           0.0000
               WELLS =           0.0000                 WELLS =           0.0000
            RECHARGE =     4336208.0000              RECHARGE =       37620.0000
    INST. IB STORAGE =       4.5319E-02      INST. IB STORAGE =       1.2611E-06
    DELAY IB STORAGE =           0.1976      DELAY IB STORAGE =       2.4161E-03

            TOTAL IN =     4336208.0000              TOTAL IN =       37620.0039

          OUT:                                     OUT:
          ----                                     ----
             STORAGE =       6.5205E-02               STORAGE =       8.5842E-04
       CONSTANT HEAD =     4336208.0000         CONSTANT HEAD =       37620.0000
               WELLS =           0.0000                 WELLS =           0.0000
            RECHARGE =           0.0000              RECHARGE =           0.0000
    INST. IB STORAGE =       8.7959E-02      INST. IB STORAGE =       1.3587E-03
    DELAY IB STORAGE =           0.1230      DELAY IB STORAGE =       7.5460E-04

           TOTAL OUT =     4336208.0000             TOTAL OUT =       37620.0000

            IN - OUT =           0.0000              IN - OUT =       3.9062E-03

 PERCENT DISCREPANCY =           0.00     PERCENT DISCREPANCY =           0.00






         TIME SUMMARY AT END OF TIME STEP    3 IN STRESS PERIOD    2
                    SECONDS     MINUTES      HOURS       DAYS        YEARS
                    -----------------------------------------------------------
   TIME STEP LENGTH 4.18152E+06  69692.      1161.5      48.397     0.13250    
 STRESS PERIOD TIME 9.87236E+06 1.64539E+05  2742.3      114.26     0.31284    
         TOTAL TIME 9.95876E+06 1.65979E+05  2766.3      115.26     0.31557    
1
 
 SOLVING FOR HEAD 
     2 ITERATIONS FOR TIME STEP   4 IN STRESS PERIOD    2

 OUTPUT CONTROL FOR STRESS PERIOD    2   TIME STEP    4
    SAVE HEAD FOR ALL LAYERS
    SAVE DRAWDOWN FOR ALL LAYERS
    SAVE BUDGET
    PRINT HEAD FOR ALL LAYERS
    PRINT BUDGET
1
              HEAD IN LAYER   1 AT END OF TIME STEP   4 IN STRESS PERIOD    2
  ---------------------------------------------------------------------------

            1           2           3           4           5           6           7           8           9          10
           11          12          13          14          15          16          17          18          19          20
           21          22          23          24          25          26          27          28          29          30
           31          32          33          34          35          36          37          38          39          40
           41          42          43          44          45          46          47          48          49          50
           51          52          53          54          55          56          57          58          59          60
           61          62          63          64          65          66          67          68          69          70
           71          72          73          74          75          76          77          78          79          80
           81          82          83          84          85          86          87          88          89          90
           91          92          93          94          95          96          97          98          99         100
 ........................................................................................................................
   1    10.00       31.68       52.10       71.32       89.40       106.4       122.3       137.3       151.2       164.3    
        176.4       187.6       198.0       207.6       216.3       224.3       231.4       237.8       243.5       248.4    
        252.6       256.1       258.9       260.9       262.3       263.0       0.000       0.000       0.000       0.000    
        0.000       0.000       0.000       0.000       0.000       0.000       0.000       0.000       0.000       0.000    
        0.000       0.000       0.000       0.000       0.000       0.000       0.000       0.000       0.000       0.000    
        0.000       0.000       0.000       0.000       0.000       0.000       0.000       0.000       0.000       0.000    
        0.000       0.000       0.000       0.000       0.000       0.000       0.000       0.000       0.000       294.8    
        294.2       293.0       291.2       288.8       285.9       282.3       278.2       273.4       268.1       262.2    
        255.7       248.5       240.8       232.5       223.5       213.9       203.8       192.9       181.5       169.3    
        156.6       143.1       129.0       114.2       98.68       82.45       65.48       47.77       29.28       10.00    
1
              HEAD IN LAYER   2 AT END OF TIME STEP   4 IN STRESS PERIOD    2
  ---------------------------------------------------------------------------

            1           2           3           4           5           6           7           8           9          10
           11          12          13          14          15          16          17          18          19          20
           21          22          23          24          25          26          27          28          29          30
           31          32          33          34          35          36          37          38          39          40
           41          42          43          44          45          46          47          48          49          50
           51          52          53          54          55          56          57          58          59          60
           61          62          63          64          65          66          67          68          69          70
           71          72          73          74          75          76          77          78          79          80
           81          82          83          84          85          86          87          88          89          90
           91          92          93          94          95          96          97          98          99         100
 ........................................................................................................................
   1    187.1       187.1       187.2       187.3       187.4       187.5       187.7       187.8       188.0       188.1    
        188.3       188.5       188.7       188.8       189.0       189.2       189.3       189.5       189.6       189.7    
        189.8       189.9       190.0       190.1       190.2       190.2       190.3       190.3       190.4       190.4    
        190.4       190.5       190.5       190.5       190.6       190.6       190.7       190.7       190.7       190.8    
        190.8       190.9       190.9       190.9       191.0       191.0       191.1       191.1       191.1       191.2    
        191.2       191.3       191.3       191.4       191.4       191.4       191.5       191.5       191.6       191.6    
        191.6       191.7       191.7       191.8       191.8       191.9       191.9       192.0       192.0       192.0    
        192.1       192.1       192.1       192.0       192.0       191.9       191.8       191.7       191.6       191.5    
        191.4       191.2       191.1       190.9       190.7       190.5       190.3       190.1       189.9       189.8    
        189.6       189.4       189.2       189.1       188.9       188.8       188.7       188.6       188.5       188.5    
1
              HEAD IN LAYER   3 AT END OF TIME STEP   4 IN STRESS PERIOD    2
  ---------------------------------------------------------------------------

            1           2           3           4           5           6           7           8           9          10
           11          12          13          14          15          16          17          18          19          20
           21          22          23          24          25          26          27          28          29          30
           31          32          33          34          35          36          37          38          39          40
           41          42          43          44          45          46          47          48          49          50
           51          52          53          54          55          56          57          58          59          60
           61          62          63          64          65          66          67          68          69          70
           71          72          73          74          75          76          77          78          79          80
           81          82          83          84          85          86          87          88          89          90
           91          92          93          94          95          96          97          98          99         100
 ........................................................................................................................
   1    190.1       190.1       190.1       190.1       190.1       190.1       190.1       190.1       190.1       190.1    
        190.1       190.1       190.1       190.1       190.1       190.1       190.1       190.1       190.2       190.2    
        190.2       190.2       190.2       190.2       190.2       190.2       190.2       190.2       190.2       190.2    
        190.2       190.2       190.3       190.3       190.3       190.3       190.3       190.3       190.3       190.3    
        190.3       190.3       190.3       190.3       190.3       190.3       190.3       190.3       190.4       190.4    
        190.4       190.4       190.4       190.4       190.4       190.4       190.4       190.4       190.4       190.4    
        190.4       190.4       190.4       190.4       190.4       190.4       190.4       190.4       190.4       190.4    
        190.4       190.4       190.4       190.4       190.4       190.4       190.4       190.4       190.4       190.4    
        190.4       190.4       190.4       190.4       190.4       190.4       190.4       190.4       190.4       190.4    
        190.4       190.4       190.4       190.4       190.4       190.4       190.4       190.4       190.4       190.4    

 HEAD WILL BE SAVED ON UNIT   51 AT END OF TIME STEP    4, STRESS PERIOD    2

 DRAWDOWN WILL BE SAVED ON UNIT   52 AT END OF TIME STEP    4, STRESS PERIOD    2
1
  VOLUMETRIC BUDGET FOR ENTIRE MODEL AT END OF TIME STEP    4, STRESS PERIOD   2
  ------------------------------------------------------------------------------

     CUMULATIVE VOLUMES      L**3       RATES FOR THIS TIME STEP      L**3/T
     ------------------                 ------------------------

           IN:                                      IN:
           ---                                      ---
             STORAGE =       6.0969E-02               STORAGE =       3.9282E-04
       CONSTANT HEAD =           0.0000         CONSTANT HEAD =           0.0000
               WELLS =           0.0000                 WELLS =           0.0000
            RECHARGE =     6703125.0000              RECHARGE =       37620.0000
    INST. IB STORAGE =       7.7980E-02      INST. IB STORAGE =       5.1912E-04
    DELAY IB STORAGE =           0.2037      DELAY IB STORAGE =       9.6781E-05

            TOTAL IN =     6703125.0000              TOTAL IN =       37620.0000

          OUT:                                     OUT:
          ----                                     ----
             STORAGE =       6.5310E-02               STORAGE =       1.6705E-06
       CONSTANT HEAD =     6703125.0000         CONSTANT HEAD =       37620.0000
               WELLS =           0.0000                 WELLS =           0.0000
            RECHARGE =           0.0000              RECHARGE =           0.0000
    INST. IB STORAGE =       8.8219E-02      INST. IB STORAGE =       4.1229E-06
    DELAY IB STORAGE =           0.2174      DELAY IB STORAGE =       1.5002E-03

           TOTAL OUT =     6703125.0000             TOTAL OUT =       37620.0000

            IN - OUT =           0.0000              IN - OUT =           0.0000

 PERCENT DISCREPANCY =           0.00     PERCENT DISCREPANCY =           0.00






         TIME SUMMARY AT END OF TIME STEP    4 IN STRESS PERIOD    2
                    SECONDS     MINUTES      HOURS       DAYS        YEARS
                    -----------------------------------------------------------
   TIME STEP LENGTH 5.43598E+06  90600.      1510.0      62.916     0.17226    
 STRESS PERIOD TIME 1.53083E+07 2.55139E+05  4252.3      177.18     0.48509    
         TOTAL TIME 1.53947E+07 2.56579E+05  4276.3      178.18     0.48783    
1
 
 SOLVING FOR HEAD 
     1 ITERATIONS FOR TIME STEP   5 IN STRESS PERIOD    2

 MAXIMUM HEAD CHANGE FOR EACH ITERATION:

    HEAD CHANGE   HEAD CHANGE   HEAD CHANGE   HEAD CHANGE   HEAD CHANGE
  LAYER,ROW,COL LAYER,ROW,COL LAYER,ROW,COL LAYER,ROW,COL LAYER,ROW,COL
 ----------------------------------------------------------------------
    -0.8682E-04
  (  3,  1, 17)


 OUTPUT CONTROL FOR STRESS PERIOD    2   TIME STEP    5
    SAVE HEAD FOR ALL LAYERS
    SAVE DRAWDOWN FOR ALL LAYERS
    SAVE BUDGET
    PRINT HEAD FOR ALL LAYERS
    PRINT BUDGET
1
              HEAD IN LAYER   1 AT END OF TIME STEP   5 IN STRESS PERIOD    2
  ---------------------------------------------------------------------------

            1           2           3           4           5           6           7           8           9          10
           11          12          13          14          15          16          17          18          19          20
           21          22          23          24          25          26          27          28          29          30
           31          32          33          34          35          36          37          38          39          40
           41          42          43          44          45          46          47          48          49          50
           51          52          53          54          55          56          57          58          59          60
           61          62          63          64          65          66          67          68          69          70
           71          72          73          74          75          76          77          78          79          80
           81          82          83          84          85          86          87          88          89          90
           91          92          93          94          95          96          97          98          99         100
 ........................................................................................................................
   1    10.00       31.68       52.10       71.32       89.40       106.4       122.3       137.3       151.2       164.3    
        176.4       187.6       198.0       207.6       216.3       224.3       231.4       237.8       243.5       248.4    
        252.6       256.1       258.9       260.9       262.3       263.0       0.000       0.000       0.000       0.000    
        0.000       0.000       0.000       0.000       0.000       0.000       0.000       0.000       0.000       0.000    
        0.000       0.000       0.000       0.000       0.000       0.000       0.000       0.000       0.000       0.000    
        0.000       0.000       0.000       0.000       0.000       0.000       0.000       0.000       0.000       0.000    
        0.000       0.000       0.000       0.000       0.000       0.000       0.000       0.000       0.000       294.8    
        294.2       293.0       291.2       288.8       285.9       282.3       278.2       273.4       268.1       262.2    
        255.7       248.5       240.8       232.5       223.5       213.9       203.8       192.9       181.5       169.3    
        156.6       143.1       129.0       114.2       98.68       82.45       65.48       47.77       29.28       10.00    
1
              HEAD IN LAYER   2 AT END OF TIME STEP   5 IN STRESS PERIOD    2
  ---------------------------------------------------------------------------

            1           2           3           4           5           6           7           8           9          10
           11          12          13          14          15          16          17          18          19          20
           21          22          23          24          25          26          27          28          29          30
           31          32          33          34          35          36          37          38          39          40
           41          42          43          44          45          46          47          48          49          50
           51          52          53          54          55          56          57          58          59          60
           61          62          63          64          65          66          67          68          69          70
           71          72          73          74          75          76          77          78          79          80
           81          82          83          84          85          86          87          88          89          90
           91          92          93          94          95          96          97          98          99         100
 ........................................................................................................................
   1    187.1       187.1       187.2       187.3       187.4       187.5       187.7       187.8       188.0       188.1    
        188.3       188.5       188.7       188.8       189.0       189.2       189.3       189.5       189.6       189.7    
        189.8       189.9       190.0       190.1       190.2       190.2       190.3       190.3       190.4       190.4    
        190.4       190.5       190.5       190.5       190.6       190.6       190.7       190.7       190.7       190.8    
        190.8       190.9       190.9       190.9       191.0       191.0       191.1       191.1       191.1       191.2    
        191.2       191.3       191.3       191.4       191.4       191.4       191.5       191.5       191.6       191.6    
        191.6       191.7       191.7       191.8       191.8       191.9       191.9       192.0       192.0       192.0    
        192.1       192.1       192.1       192.0       192.0       191.9       191.8       191.7       191.6       191.5    
        191.4       191.2       191.1       190.9       190.7       190.5       190.3       190.1       189.9       189.8    
        189.6       189.4       189.2       189.1       188.9       188.8       188.7       188.6       188.5       188.5    
1
              HEAD IN LAYER   3 AT END OF TIME STEP   5 IN STRESS PERIOD    2
  ---------------------------------------------------------------------------

            1           2           3           4           5           6           7           8           9          10
           11          12          13          14          15          16          17          18          19          20
           21          22          23          24          25          26          27          28          29          30
           31          32          33          34          35          36          37          38          39          40
           41          42          43          44          45          46          47          48          49          50
           51          52          53          54          55          56          57          58          59          60
           61          62          63          64          65          66          67          68          69          70
           71          72          73          74          75          76          77          78          79          80
           81          82          83          84          85          86          87          88          89          90
           91          92          93          94          95          96          97          98          99         100
 ........................................................................................................................
   1    190.1       190.1       190.1       190.1       190.1       190.1       190.1       190.1       190.1       190.1    
        190.1       190.1       190.1       190.1       190.1       190.1       190.1       190.1       190.2       190.2    
        190.2       190.2       190.2       190.2       190.2       190.2       190.2       190.2       190.2       190.2    
        190.2       190.2       190.3       190.3       190.3       190.3       190.3       190.3       190.3       190.3    
        190.3       190.3       190.3       190.3       190.3       190.3       190.3       190.3       190.4       190.4    
        190.4       190.4       190.4       190.4       190.4       190.4       190.4       190.4       190.4       190.4    
        190.4       190.4       190.4       190.4       190.4       190.4       190.4       190.4       190.4       190.4    
        190.4       190.4       190.4       190.4       190.4       190.4       190.4       190.4       190.4       190.4    
        190.4       190.4       190.4       190.4       190.4       190.4       190.4       190.4       190.4       190.4    
        190.4       190.4       190.4       190.4       190.4       190.4       190.4       190.4       190.4       190.4    

 HEAD WILL BE SAVED ON UNIT   51 AT END OF TIME STEP    5, STRESS PERIOD    2

 DRAWDOWN WILL BE SAVED ON UNIT   52 AT END OF TIME STEP    5, STRESS PERIOD    2
1
  VOLUMETRIC BUDGET FOR ENTIRE MODEL AT END OF TIME STEP    5, STRESS PERIOD   2
  ------------------------------------------------------------------------------

     CUMULATIVE VOLUMES      L**3       RATES FOR THIS TIME STEP      L**3/T
     ------------------                 ------------------------

           IN:                                      IN:
           ---                                      ---
             STORAGE =       7.1079E-02               STORAGE =       1.2360E-04
       CONSTANT HEAD =           0.0000         CONSTANT HEAD =           0.0000
               WELLS =           0.0000                 WELLS =           0.0000
            RECHARGE =     9780117.0000              RECHARGE =       37620.0000
    INST. IB STORAGE =       9.4231E-02      INST. IB STORAGE =       1.9868E-04
    DELAY IB STORAGE =           0.2407      DELAY IB STORAGE =       4.5303E-04

            TOTAL IN =     9780117.0000              TOTAL IN =       37620.0000

          OUT:                                     OUT:
          ----                                     ----
             STORAGE =       7.0010E-02               STORAGE =       5.7460E-05
       CONSTANT HEAD =     9780117.0000         CONSTANT HEAD =       37620.0000
               WELLS =           0.0000                 WELLS =           0.0000
            RECHARGE =           0.0000              RECHARGE =           0.0000
    INST. IB STORAGE =       8.8341E-02      INST. IB STORAGE =       1.4925E-06
    DELAY IB STORAGE =           0.2662      DELAY IB STORAGE =       5.9674E-04

           TOTAL OUT =     9780117.0000             TOTAL OUT =       37620.0000

            IN - OUT =           0.0000              IN - OUT =           0.0000

 PERCENT DISCREPANCY =           0.00     PERCENT DISCREPANCY =           0.00






         TIME SUMMARY AT END OF TIME STEP    5 IN STRESS PERIOD    2
                    SECONDS     MINUTES      HOURS       DAYS        YEARS
                    -----------------------------------------------------------
   TIME STEP LENGTH 7.06678E+06 1.17780E+05  1963.0      81.791     0.22393    
 STRESS PERIOD TIME 2.23751E+07 3.72919E+05  6215.3      258.97     0.70902    
         TOTAL TIME 2.24615E+07 3.74359E+05  6239.3      259.97     0.71176    
1
 
 SOLVING FOR HEAD 
     2 ITERATIONS FOR TIME STEP   6 IN STRESS PERIOD    2

 MAXIMUM HEAD CHANGE FOR EACH ITERATION:

    HEAD CHANGE   HEAD CHANGE   HEAD CHANGE   HEAD CHANGE   HEAD CHANGE
  LAYER,ROW,COL LAYER,ROW,COL LAYER,ROW,COL LAYER,ROW,COL LAYER,ROW,COL
 ----------------------------------------------------------------------
     0.1407E-03    0.5843E-04
  (  3,  1,  3) (  2,  1, 40)


 OUTPUT CONTROL FOR STRESS PERIOD    2   TIME STEP    6
    SAVE HEAD FOR ALL LAYERS
    SAVE DRAWDOWN FOR ALL LAYERS
    SAVE BUDGET
    PRINT HEAD FOR ALL LAYERS
    PRINT BUDGET
1
              HEAD IN LAYER   1 AT END OF TIME STEP   6 IN STRESS PERIOD    2
  ---------------------------------------------------------------------------

            1           2           3           4           5           6           7           8           9          10
           11          12          13          14          15          16          17          18          19          20
           21          22          23          24          25          26          27          28          29          30
           31          32          33          34          35          36          37          38          39          40
           41          42          43          44          45          46          47          48          49          50
           51          52          53          54          55          56          57          58          59          60
           61          62          63          64          65          66          67          68          69          70
           71          72          73          74          75          76          77          78          79          80
           81          82          83          84          85          86          87          88          89          90
           91          92          93          94          95          96          97          98          99         100
 ........................................................................................................................
   1    10.00       31.68       52.10       71.32       89.40       106.4       122.3       137.3       151.2       164.3    
        176.4       187.6       198.0       207.6       216.3       224.3       231.4       237.8       243.5       248.4    
        252.6       256.1       258.9       260.9       262.3       263.0       0.000       0.000       0.000       0.000    
        0.000       0.000       0.000       0.000       0.000       0.000       0.000       0.000       0.000       0.000    
        0.000       0.000       0.000       0.000       0.000       0.000       0.000       0.000       0.000       0.000    
        0.000       0.000       0.000       0.000       0.000       0.000       0.000       0.000       0.000       0.000    
        0.000       0.000       0.000       0.000       0.000       0.000       0.000       0.000       0.000       294.8    
        294.2       293.0       291.2       288.8       285.9       282.3       278.2       273.4       268.1       262.2    
        255.7       248.5       240.8       232.5       223.5       213.9       203.8       192.9       181.5       169.3    
        156.6       143.1       129.0       114.2       98.68       82.45       65.48       47.77       29.28       10.00    
1
              HEAD IN LAYER   2 AT END OF TIME STEP   6 IN STRESS PERIOD    2
  ---------------------------------------------------------------------------

            1           2           3           4           5           6           7           8           9          10
           11          12          13          14          15          16          17          18          19          20
           21          22          23          24          25          26          27          28          29          30
           31          32          33          34          35          36          37          38          39          40
           41          42          43          44          45          46          47          48          49          50
           51          52          53          54          55          56          57          58          59          60
           61          62          63          64          65          66          67          68          69          70
           71          72          73          74          75          76          77          78          79          80
           81          82          83          84          85          86          87          88          89          90
           91          92          93          94          95          96          97          98          99         100
 ........................................................................................................................
   1    187.1       187.1       187.2       187.3       187.4       187.5       187.7       187.8       188.0       188.1    
        188.3       188.5       188.7       188.8       189.0       189.2       189.3       189.5       189.6       189.7    
        189.8       189.9       190.0       190.1       190.2       190.2       190.3       190.3       190.4       190.4    
        190.4       190.5       190.5       190.5       190.6       190.6       190.7       190.7       190.7       190.8    
        190.8       190.9       190.9       190.9       191.0       191.0       191.1       191.1       191.1       191.2    
        191.2       191.3       191.3       191.4       191.4       191.4       191.5       191.5       191.6       191.6    
        191.6       191.7       191.7       191.8       191.8       191.9       191.9       192.0       192.0       192.0    
        192.1       192.1       192.1       192.0       192.0       191.9       191.8       191.7       191.6       191.5    
        191.4       191.2       191.1       190.9       190.7       190.5       190.3       190.1       189.9       189.8    
        189.6       189.4       189.2       189.1       188.9       188.8       188.7       188.6       188.5       188.5    
1
              HEAD IN LAYER   3 AT END OF TIME STEP   6 IN STRESS PERIOD    2
  ---------------------------------------------------------------------------

            1           2           3           4           5           6           7           8           9          10
           11          12          13          14          15          16          17          18          19          20
           21          22          23          24          25          26          27          28          29          30
           31          32          33          34          35          36          37          38          39          40
           41          42          43          44          45          46          47          48          49          50
           51          52          53          54          55          56          57          58          59          60
           61          62          63          64          65          66          67          68          69          70
           71          72          73          74          75          76          77          78          79          80
           81          82          83          84          85          86          87          88          89          90
           91          92          93          94          95          96          97          98          99         100
 ........................................................................................................................
   1    190.1       190.1       190.1       190.1       190.1       190.1       190.1       190.1       190.1       190.1    
        190.1       190.1       190.1       190.1       190.1       190.1       190.1       190.2       190.2       190.2    
        190.2       190.2       190.2       190.2       190.2       190.2       190.2       190.2       190.2       190.2    
        190.2       190.2       190.3       190.3       190.3       190.3       190.3       190.3       190.3       190.3    
        190.3       190.3       190.3       190.3       190.3       190.3       190.3       190.3       190.4       190.4    
        190.4       190.4       190.4       190.4       190.4       190.4       190.4       190.4       190.4       190.4    
        190.4       190.4       190.4       190.4       190.4       190.4       190.4       190.4       190.4       190.4    
        190.4       190.4       190.4       190.4       190.4       190.4       190.4       190.4       190.4       190.4    
        190.4       190.4       190.4       190.4       190.4       190.4       190.4       190.4       190.4       190.4    
        190.4       190.4       190.4       190.4       190.4       190.4       190.4       190.4       190.4       190.4    

 HEAD WILL BE SAVED ON UNIT   51 AT END OF TIME STEP    6, STRESS PERIOD    2

 DRAWDOWN WILL BE SAVED ON UNIT   52 AT END OF TIME STEP    6, STRESS PERIOD    2
1
  VOLUMETRIC BUDGET FOR ENTIRE MODEL AT END OF TIME STEP    6, STRESS PERIOD   2
  ------------------------------------------------------------------------------

     CUMULATIVE VOLUMES      L**3       RATES FOR THIS TIME STEP      L**3/T
     ------------------                 ------------------------

           IN:                                      IN:
           ---                                      ---
             STORAGE =       7.4603E-02               STORAGE =       3.3150E-05
       CONSTANT HEAD =           0.0000         CONSTANT HEAD =           0.0000
               WELLS =           0.0000                 WELLS =           0.0000
            RECHARGE =    13780206.0000              RECHARGE =       37620.0000
    INST. IB STORAGE =       9.4307E-02      INST. IB STORAGE =       7.1753E-07
    DELAY IB STORAGE =           0.3505      DELAY IB STORAGE =       1.0323E-03

            TOTAL IN =    13780206.0000              TOTAL IN =       37620.0000

          OUT:                                     OUT:
          ----                                     ----
             STORAGE =       9.3825E-02               STORAGE =       2.2397E-04
       CONSTANT HEAD =    13780206.0000         CONSTANT HEAD =       37620.0000
               WELLS =           0.0000                 WELLS =           0.0000
            RECHARGE =           0.0000              RECHARGE =           0.0000
    INST. IB STORAGE =           0.1217      INST. IB STORAGE =       3.1385E-04
    DELAY IB STORAGE =           0.2712      DELAY IB STORAGE =       4.7112E-05

           TOTAL OUT =    13780206.0000             TOTAL OUT =       37620.0000

            IN - OUT =           0.0000              IN - OUT =           0.0000

 PERCENT DISCREPANCY =           0.00     PERCENT DISCREPANCY =           0.00






         TIME SUMMARY AT END OF TIME STEP    6 IN STRESS PERIOD    2
                    SECONDS     MINUTES      HOURS       DAYS        YEARS
                    -----------------------------------------------------------
   TIME STEP LENGTH 9.18681E+06 1.53113E+05  2551.9      106.33     0.29111    
 STRESS PERIOD TIME 3.15619E+07 5.26032E+05  8767.2      365.30      1.0001    
         TOTAL TIME 3.16483E+07 5.27472E+05  8791.2      366.30      1.0029    
1

                               VOLUMETRIC BUDGET FOR SYSTEMS OF DELAY INTERBEDS
                                          AT END OF TIME STEP  6 IN STRESS PERIOD  2

          |   C U M U L A T I V E   V O L U M E S   L**3           | R A T E S   F O R  T H I S  T I M E  S T E P   L**3/T  |
   SYSTEM |    CHANGE IN     BOUNDARY                    PERCENT   |    CHANGE IN     BOUNDARY                    PERCENT   |
   NUMBER |     STORAGE        FLOW           SUM      DISCREPANCY |     STORAGE        FLOW           SUM      DISCREPANCY |
  --------|--------------------------------------------------------|--------------------------------------------------------|
      1    0.22594E-01   -0.22594E-01    0.16764E-07    0.74197E-04    0.32877E-03   -0.32877E-03    0.29104E-10    0.88523E-05
      2    0.56663E-01   -0.56663E-01   -0.37253E-08   -0.65745E-05    0.65642E-03   -0.65642E-03    0.58208E-10    0.88675E-05
  --------|--------------------------------------------------------|--------------------------------------------------------|
 TOTALS:    0.79257E-01   -0.79257E-01    0.14901E-07    0.18801E-04    0.98519E-03   -0.98519E-03    0.11642E-09    0.11817E-04
1
                            STRESS PERIOD NO.    3, LENGTH =   365.3000    
                            -----------------------------------------------

                              NUMBER OF TIME STEPS =     6

                               MULTIPLIER FOR DELT =     1.300

                            INITIAL TIME STEP SIZE =   28.63744    

 WELL NO.  LAYER   ROW   COL   STRESS RATE         
 --------------------------------------------------
      1      1      1     50     -0.1532E+06

      1 WELL 

 REUSING RECH FROM LAST STRESS PERIOD
 
 SOLVING FOR HEAD 

     2 ITERATIONS FOR TIME STEP   1 IN STRESS PERIOD    3

 OUTPUT CONTROL FOR STRESS PERIOD    3   TIME STEP    1
    SAVE HEAD FOR ALL LAYERS
    SAVE DRAWDOWN FOR ALL LAYERS
    SAVE BUDGET
    PRINT HEAD FOR ALL LAYERS
    PRINT BUDGET
1
              HEAD IN LAYER   1 AT END OF TIME STEP   1 IN STRESS PERIOD    3
  ---------------------------------------------------------------------------

            1           2           3           4           5           6           7           8           9          10
           11          12          13          14          15          16          17          18          19          20
           21          22          23          24          25          26          27          28          29          30
           31          32          33          34          35          36          37          38          39          40
           41          42          43          44          45          46          47          48          49          50
           51          52          53          54          55          56          57          58          59          60
           61          62          63          64          65          66          67          68          69          70
           71          72          73          74          75          76          77          78          79          80
           81          82          83          84          85          86          87          88          89          90
           91          92          93          94          95          96          97          98          99         100
 ........................................................................................................................
   1    10.00       31.68       52.10       71.32       89.40       106.4       122.3       137.3       151.2       164.3    
        176.4       187.6       198.0       207.6       216.3       224.3       231.4       237.8       243.5       248.4    
        252.6       256.1       258.9       260.9       262.3       263.0       0.000       0.000       0.000       0.000    
        0.000       0.000       0.000       0.000       0.000       0.000       0.000       0.000       0.000       0.000    
        0.000       0.000       0.000       0.000       0.000       0.000       0.000       0.000       0.000       0.000    
        0.000       0.000       0.000       0.000       0.000       0.000       0.000       0.000       0.000       0.000    
        0.000       0.000       0.000       0.000       0.000       0.000       0.000       0.000       0.000       294.8    
        294.2       293.0       291.2       288.8       285.9       282.3       278.2       273.4       268.1       262.2    
        255.7       248.5       240.8       232.5       223.5       213.9       203.8       192.9       181.5       169.3    
        156.6       143.1       129.0       114.2       98.68       82.45       65.48       47.77       29.28       10.00    
1
              HEAD IN LAYER   2 AT END OF TIME STEP   1 IN STRESS PERIOD    3
  ---------------------------------------------------------------------------

            1           2           3           4           5           6           7           8           9          10
           11          12          13          14          15          16          17          18          19          20
           21          22          23          24          25          26          27          28          29          30
           31          32          33          34          35          36          37          38          39          40
           41          42          43          44          45          46          47          48          49          50
           51          52          53          54          55          56          57          58          59          60
           61          62          63          64          65          66          67          68          69          70
           71          72          73          74          75          76          77          78          79          80
           81          82          83          84          85          86          87          88          89          90
           91          92          93          94          95          96          97          98          99         100
 ........................................................................................................................
   1    187.1       187.1       187.2       187.3       187.4       187.5       187.7       187.8       188.0       188.1    
        188.3       188.5       188.7       188.8       189.0       189.2       189.3       189.5       189.6       189.7    
        189.8       189.9       190.0       190.1       190.2       190.2       190.3       190.3       190.4       190.4    
        190.4       190.5       190.5       190.5       190.6       190.6       190.7       190.7       190.7       190.8    
        190.8       190.9       190.9       190.9       191.0       191.0       191.1       191.1       191.1       191.2    
        191.2       191.3       191.3       191.4       191.4       191.4       191.5       191.5       191.6       191.6    
        191.6       191.7       191.7       191.8       191.8       191.9       191.9       192.0       192.0       192.0    
        192.1       192.1       192.1       192.0       192.0       191.9       191.8       191.7       191.6       191.5    
        191.4       191.2       191.1       190.9       190.7       190.5       190.3       190.1       189.9       189.8    
        189.6       189.4       189.2       189.1       188.9       188.8       188.7       188.6       188.5       188.5    
1
              HEAD IN LAYER   3 AT END OF TIME STEP   1 IN STRESS PERIOD    3
  ---------------------------------------------------------------------------

            1           2           3           4           5           6           7           8           9          10
           11          12          13          14          15          16          17          18          19          20
           21          22          23          24          25          26          27          28          29          30
           31          32          33          34          35          36          37          38          39          40
           41          42          43          44          45          46          47          48          49          50
           51          52          53          54          55          56          57          58          59          60
           61          62          63          64          65          66          67          68          69          70
           71          72          73          74          75          76          77          78          79          80
           81          82          83          84          85          86          87          88          89          90
           91          92          93          94          95          96          97          98          99         100
 ........................................................................................................................
   1    190.1       190.1       190.1       190.1       190.1       190.1       190.1       190.1       190.1       190.1    
        190.1       190.1       190.1       190.1       190.1       190.1       190.1       190.1       190.2       190.2    
        190.2       190.2       190.2       190.2       190.2       190.2       190.2       190.2       190.2       190.2    
        190.2       190.2       190.3       190.3       190.3       190.3       190.3       190.3       190.3       190.3    
        190.3       190.3       190.3       190.3       190.3       190.3       190.3       190.3       190.4       190.4    
        190.4       190.4       190.4       190.4       190.4       190.4       190.4       190.4       190.4       190.4    
        190.4       190.4       190.4       190.4       190.4       190.4       190.4       190.4       190.4       190.4    
        190.4       190.4       190.4       190.4       190.4       190.4       190.4       190.4       190.4       190.4    
        190.4       190.4       190.4       190.4       190.4       190.4       190.4       190.4       190.4       190.4    
        190.4       190.4       190.4       190.4       190.4       190.4       190.4       190.4       190.4       190.4    

 HEAD WILL BE SAVED ON UNIT   51 AT END OF TIME STEP    1, STRESS PERIOD    3

 DRAWDOWN WILL BE SAVED ON UNIT   52 AT END OF TIME STEP    1, STRESS PERIOD    3
1
  VOLUMETRIC BUDGET FOR ENTIRE MODEL AT END OF TIME STEP    1, STRESS PERIOD   3
  ------------------------------------------------------------------------------

     CUMULATIVE VOLUMES      L**3       RATES FOR THIS TIME STEP      L**3/T
     ------------------                 ------------------------

           IN:                                      IN:
           ---                                      ---
             STORAGE =           0.1154               STORAGE =       1.4250E-03
       CONSTANT HEAD =           0.0000         CONSTANT HEAD =           0.0000
               WELLS =           0.0000                 WELLS =           0.0000
            RECHARGE =    14857546.0000              RECHARGE =       37620.0000
    INST. IB STORAGE =           0.1580      INST. IB STORAGE =       2.2256E-03
    DELAY IB STORAGE =           0.3628      DELAY IB STORAGE =       4.2786E-04

            TOTAL IN =    14857546.0000              TOTAL IN =       37620.0039

          OUT:                                     OUT:
          ----                                     ----
             STORAGE =       9.4118E-02               STORAGE =       1.0257E-05
       CONSTANT HEAD =    14857546.0000         CONSTANT HEAD =       37620.0000
               WELLS =           0.0000                 WELLS =           0.0000
            RECHARGE =           0.0000              RECHARGE =           0.0000
    INST. IB STORAGE =           0.1217      INST. IB STORAGE =       2.6641E-07
    DELAY IB STORAGE =           0.3817      DELAY IB STORAGE =       3.8558E-03

           TOTAL OUT =    14857546.0000             TOTAL OUT =       37620.0039

            IN - OUT =           0.0000              IN - OUT =           0.0000

 PERCENT DISCREPANCY =           0.00     PERCENT DISCREPANCY =           0.00






         TIME SUMMARY AT END OF TIME STEP    1 IN STRESS PERIOD    3
                    SECONDS     MINUTES      HOURS       DAYS        YEARS
                    -----------------------------------------------------------
   TIME STEP LENGTH 2.47427E+06  41238.      687.30      28.637     7.84050E-02
 STRESS PERIOD TIME 2.47427E+06  41238.      687.30      28.637     7.84050E-02
         TOTAL TIME 3.41226E+07 5.68710E+05  9478.5      394.94      1.0813    
1
 
 SOLVING FOR HEAD 
     1 ITERATIONS FOR TIME STEP   2 IN STRESS PERIOD    3

 OUTPUT CONTROL FOR STRESS PERIOD    3   TIME STEP    2
    SAVE HEAD FOR ALL LAYERS
    SAVE DRAWDOWN FOR ALL LAYERS
    SAVE BUDGET
    PRINT HEAD FOR ALL LAYERS
    PRINT BUDGET
1
              HEAD IN LAYER   1 AT END OF TIME STEP   2 IN STRESS PERIOD    3
  ---------------------------------------------------------------------------

            1           2           3           4           5           6           7           8           9          10
           11          12          13          14          15          16          17          18          19          20
           21          22          23          24          25          26          27          28          29          30
           31          32          33          34          35          36          37          38          39          40
           41          42          43          44          45          46          47          48          49          50
           51          52          53          54          55          56          57          58          59          60
           61          62          63          64          65          66          67          68          69          70
           71          72          73          74          75          76          77          78          79          80
           81          82          83          84          85          86          87          88          89          90
           91          92          93          94          95          96          97          98          99         100
 ........................................................................................................................
   1    10.00       31.68       52.10       71.32       89.40       106.4       122.3       137.3       151.2       164.3    
        176.4       187.6       198.0       207.6       216.3       224.3       231.4       237.8       243.5       248.4    
        252.6       256.1       258.9       260.9       262.3       263.0       0.000       0.000       0.000       0.000    
        0.000       0.000       0.000       0.000       0.000       0.000       0.000       0.000       0.000       0.000    
        0.000       0.000       0.000       0.000       0.000       0.000       0.000       0.000       0.000       0.000    
        0.000       0.000       0.000       0.000       0.000       0.000       0.000       0.000       0.000       0.000    
        0.000       0.000       0.000       0.000       0.000       0.000       0.000       0.000       0.000       294.8    
        294.2       293.0       291.2       288.8       285.9       282.3       278.2       273.4       268.1       262.2    
        255.7       248.5       240.8       232.5       223.5       213.9       203.8       192.9       181.5       169.3    
        156.6       143.1       129.0       114.2       98.68       82.45       65.48       47.77       29.28       10.00    
1
              HEAD IN LAYER   2 AT END OF TIME STEP   2 IN STRESS PERIOD    3
  ---------------------------------------------------------------------------

            1           2           3           4           5           6           7           8           9          10
           11          12          13          14          15          16          17          18          19          20
           21          22          23          24          25          26          27          28          29          30
           31          32          33          34          35          36          37          38          39          40
           41          42          43          44          45          46          47          48          49          50
           51          52          53          54          55          56          57          58          59          60
           61          62          63          64          65          66          67          68          69          70
           71          72          73          74          75          76          77          78          79          80
           81          82          83          84          85          86          87          88          89          90
           91          92          93          94          95          96          97          98          99         100
 ........................................................................................................................
   1    187.1       187.1       187.2       187.3       187.4       187.5       187.7       187.8       188.0       188.1    
        188.3       188.5       188.7       188.8       189.0       189.2       189.3       189.5       189.6       189.7    
        189.8       189.9       190.0       190.1       190.2       190.2       190.3       190.3       190.4       190.4    
        190.4       190.5       190.5       190.5       190.6       190.6       190.7       190.7       190.7       190.8    
        190.8       190.9       190.9       190.9       191.0       191.0       191.1       191.1       191.1       191.2    
        191.2       191.3       191.3       191.4       191.4       191.4       191.5       191.5       191.6       191.6    
        191.6       191.7       191.7       191.8       191.8       191.9       191.9       192.0       192.0       192.0    
        192.1       192.1       192.1       192.0       192.0       191.9       191.8       191.7       191.6       191.5    
        191.4       191.2       191.1       190.9       190.7       190.5       190.3       190.1       189.9       189.8    
        189.6       189.4       189.2       189.1       188.9       188.8       188.7       188.6       188.5       188.5    
1
              HEAD IN LAYER   3 AT END OF TIME STEP   2 IN STRESS PERIOD    3
  ---------------------------------------------------------------------------

            1           2           3           4           5           6           7           8           9          10
           11          12          13          14          15          16          17          18          19          20
           21          22          23          24          25          26          27          28          29          30
           31          32          33          34          35          36          37          38          39          40
           41          42          43          44          45          46          47          48          49          50
           51          52          53          54          55          56          57          58          59          60
           61          62          63          64          65          66          67          68          69          70
           71          72          73          74          75          76          77          78          79          80
           81          82          83          84          85          86          87          88          89          90
           91          92          93          94          95          96          97          98          99         100
 ........................................................................................................................
   1    190.1       190.1       190.1       190.1       190.1       190.1       190.1       190.1       190.1       190.1    
        190.1       190.1       190.1       190.1       190.1       190.1       190.1       190.1       190.2       190.2    
        190.2       190.2       190.2       190.2       190.2       190.2       190.2       190.2       190.2       190.2    
        190.2       190.2       190.3       190.3       190.3       190.3       190.3       190.3       190.3       190.3    
        190.3       190.3       190.3       190.3       190.3       190.3       190.3       190.3       190.4       190.4    
        190.4       190.4       190.4       190.4       190.4       190.4       190.4       190.4       190.4       190.4    
        190.4       190.4       190.4       190.4       190.4       190.4       190.4       190.4       190.4       190.4    
        190.4       190.4       190.4       190.4       190.4       190.4       190.4       190.4       190.4       190.4    
        190.4       190.4       190.4       190.4       190.4       190.4       190.4       190.4       190.4       190.4    
        190.4       190.4       190.4       190.4       190.4       190.4       190.4       190.4       190.4       190.4    

 HEAD WILL BE SAVED ON UNIT   51 AT END OF TIME STEP    2, STRESS PERIOD    3

 DRAWDOWN WILL BE SAVED ON UNIT   52 AT END OF TIME STEP    2, STRESS PERIOD    3
1
  VOLUMETRIC BUDGET FOR ENTIRE MODEL AT END OF TIME STEP    2, STRESS PERIOD   3
  ------------------------------------------------------------------------------

     CUMULATIVE VOLUMES      L**3       RATES FOR THIS TIME STEP      L**3/T
     ------------------                 ------------------------

           IN:                                      IN:
           ---                                      ---
             STORAGE =           0.1203               STORAGE =       1.3223E-04
       CONSTANT HEAD =           0.0000         CONSTANT HEAD =           0.0000
               WELLS =           0.0000                 WELLS =           0.0000
            RECHARGE =    16258089.0000              RECHARGE =       37620.0000
    INST. IB STORAGE =           0.1620      INST. IB STORAGE =       1.0636E-04
    DELAY IB STORAGE =           0.4071      DELAY IB STORAGE =       1.1921E-03

            TOTAL IN =    16258089.0000              TOTAL IN =       37620.0000

          OUT:                                     OUT:
          ----                                     ----
             STORAGE =           0.1109               STORAGE =       4.5009E-04
       CONSTANT HEAD =    16258089.0000         CONSTANT HEAD =       37620.0000
               WELLS =           0.0000                 WELLS =           0.0000
            RECHARGE =           0.0000              RECHARGE =           0.0000
    INST. IB STORAGE =           0.1383      INST. IB STORAGE =       4.4634E-04
    DELAY IB STORAGE =           0.3899      DELAY IB STORAGE =       2.2148E-04

           TOTAL OUT =    16258089.0000             TOTAL OUT =       37620.0000

            IN - OUT =           0.0000              IN - OUT =           0.0000

 PERCENT DISCREPANCY =           0.00     PERCENT DISCREPANCY =           0.00






         TIME SUMMARY AT END OF TIME STEP    2 IN STRESS PERIOD    3
                    SECONDS     MINUTES      HOURS       DAYS        YEARS
                    -----------------------------------------------------------
   TIME STEP LENGTH 3.21656E+06  53609.      893.49      37.229     0.10193    
 STRESS PERIOD TIME 5.69083E+06  94847.      1580.8      65.866     0.18033    
         TOTAL TIME 3.73392E+07 6.22319E+05  10372.      432.17      1.1832    
1
 
 SOLVING FOR HEAD 
     2 ITERATIONS FOR TIME STEP   3 IN STRESS PERIOD    3

 OUTPUT CONTROL FOR STRESS PERIOD    3   TIME STEP    3
    SAVE HEAD FOR ALL LAYERS
    SAVE DRAWDOWN FOR ALL LAYERS
    SAVE BUDGET
    PRINT HEAD FOR ALL LAYERS
    PRINT BUDGET
1
              HEAD IN LAYER   1 AT END OF TIME STEP   3 IN STRESS PERIOD    3
  ---------------------------------------------------------------------------

            1           2           3           4           5           6           7           8           9          10
           11          12          13          14          15          16          17          18          19          20
           21          22          23          24          25          26          27          28          29          30
           31          32          33          34          35          36          37          38          39          40
           41          42          43          44          45          46          47          48          49          50
           51          52          53          54          55          56          57          58          59          60
           61          62          63          64          65          66          67          68          69          70
           71          72          73          74          75          76          77          78          79          80
           81          82          83          84          85          86          87          88          89          90
           91          92          93          94          95          96          97          98          99         100
 ........................................................................................................................
   1    10.00       31.68       52.10       71.32       89.40       106.4       122.3       137.3       151.2       164.3    
        176.4       187.6       198.0       207.6       216.3       224.3       231.4       237.8       243.5       248.4    
        252.6       256.1       258.9       260.9       262.3       263.0       0.000       0.000       0.000       0.000    
        0.000       0.000       0.000       0.000       0.000       0.000       0.000       0.000       0.000       0.000    
        0.000       0.000       0.000       0.000       0.000       0.000       0.000       0.000       0.000       0.000    
        0.000       0.000       0.000       0.000       0.000       0.000       0.000       0.000       0.000       0.000    
        0.000       0.000       0.000       0.000       0.000       0.000       0.000       0.000       0.000       294.8    
        294.2       293.0       291.2       288.8       285.9       282.3       278.2       273.4       268.1       262.2    
        255.7       248.5       240.8       232.5       223.5       213.9       203.8       192.9       181.5       169.3    
        156.6       143.1       129.0       114.2       98.68       82.45       65.48       47.77       29.28       10.00    
1
              HEAD IN LAYER   2 AT END OF TIME STEP   3 IN STRESS PERIOD    3
  ---------------------------------------------------------------------------

            1           2           3           4           5           6           7           8           9          10
           11          12          13          14          15          16          17          18          19          20
           21          22          23          24          25          26          27          28          29          30
           31          32          33          34          35          36          37          38          39          40
           41          42          43          44          45          46          47          48          49          50
           51          52          53          54          55          56          57          58          59          60
           61          62          63          64          65          66          67          68          69          70
           71          72          73          74          75          76          77          78          79          80
           81          82          83          84          85          86          87          88          89          90
           91          92          93          94          95          96          97          98          99         100
 ........................................................................................................................
   1    187.1       187.1       187.2       187.3       187.4       187.5       187.7       187.8       188.0       188.1    
        188.3       188.5       188.7       188.8       189.0       189.2       189.3       189.5       189.6       189.7    
        189.8       189.9       190.0       190.1       190.2       190.2       190.3       190.3       190.4       190.4    
        190.4       190.5       190.5       190.5       190.6       190.6       190.7       190.7       190.7       190.8    
        190.8       190.9       190.9       190.9       191.0       191.0       191.1       191.1       191.1       191.2    
        191.2       191.3       191.3       191.4       191.4       191.4       191.5       191.5       191.6       191.6    
        191.6       191.7       191.7       191.8       191.8       191.9       191.9       192.0       192.0       192.0    
        192.1       192.1       192.1       192.0       192.0       191.9       191.8       191.7       191.6       191.5    
        191.4       191.2       191.1       190.9       190.7       190.5       190.3       190.1       189.9       189.8    
        189.6       189.4       189.2       189.1       188.9       188.8       188.7       188.6       188.5       188.5    
1
              HEAD IN LAYER   3 AT END OF TIME STEP   3 IN STRESS PERIOD    3
  ---------------------------------------------------------------------------

            1           2           3           4           5           6           7           8           9          10
           11          12          13          14          15          16          17          18          19          20
           21          22          23          24          25          26          27          28          29          30
           31          32          33          34          35          36          37          38          39          40
           41          42          43          44          45          46          47          48          49          50
           51          52          53          54          55          56          57          58          59          60
           61          62          63          64          65          66          67          68          69          70
           71          72          73          74          75          76          77          78          79          80
           81          82          83          84          85          86          87          88          89          90
           91          92          93          94          95          96          97          98          99         100
 ........................................................................................................................
   1    190.1       190.1       190.1       190.1       190.1       190.1       190.1       190.1       190.1       190.1    
        190.1       190.1       190.1       190.1       190.1       190.1       190.1       190.2       190.2       190.2    
        190.2       190.2       190.2       190.2       190.2       190.2       190.2       190.2       190.2       190.2    
        190.2       190.2       190.3       190.3       190.3       190.3       190.3       190.3       190.3       190.3    
        190.3       190.3       190.3       190.3       190.3       190.3       190.3       190.3       190.4       190.4    
        190.4       190.4       190.4       190.4       190.4       190.4       190.4       190.4       190.4       190.4    
        190.4       190.4       190.4       190.4       190.4       190.4       190.4       190.4       190.4       190.4    
        190.4       190.4       190.4       190.4       190.4       190.4       190.4       190.4       190.4       190.4    
        190.4       190.4       190.4       190.4       190.4       190.4       190.4       190.4       190.4       190.4    
        190.4       190.4       190.4       190.4       190.4       190.4       190.4       190.4       190.4       190.4    

 HEAD WILL BE SAVED ON UNIT   51 AT END OF TIME STEP    3, STRESS PERIOD    3

 DRAWDOWN WILL BE SAVED ON UNIT   52 AT END OF TIME STEP    3, STRESS PERIOD    3
1
  VOLUMETRIC BUDGET FOR ENTIRE MODEL AT END OF TIME STEP    3, STRESS PERIOD   3
  ------------------------------------------------------------------------------

     CUMULATIVE VOLUMES      L**3       RATES FOR THIS TIME STEP      L**3/T
     ------------------                 ------------------------

           IN:                                      IN:
           ---                                      ---
             STORAGE =           0.1233               STORAGE =       6.0692E-05
       CONSTANT HEAD =           0.0000         CONSTANT HEAD =           0.0000
               WELLS =           0.0000                 WELLS =           0.0000
            RECHARGE =    18078794.0000              RECHARGE =       37620.0000
    INST. IB STORAGE =           0.1621      INST. IB STORAGE =       1.5764E-06
    DELAY IB STORAGE =           0.5179      DELAY IB STORAGE =       2.2890E-03

            TOTAL IN =    18078794.0000              TOTAL IN =       37620.0039

          OUT:                                     OUT:
          ----                                     ----
             STORAGE =           0.1503               STORAGE =       8.1464E-04
       CONSTANT HEAD =    18078794.0000         CONSTANT HEAD =       37620.0000
               WELLS =           0.0000                 WELLS =           0.0000
            RECHARGE =           0.0000              RECHARGE =           0.0000
    INST. IB STORAGE =           0.2007      INST. IB STORAGE =       1.2881E-03
    DELAY IB STORAGE =           0.4275      DELAY IB STORAGE =       7.7580E-04

           TOTAL OUT =    18078794.0000             TOTAL OUT =       37620.0000

            IN - OUT =           0.0000              IN - OUT =       3.9062E-03

 PERCENT DISCREPANCY =           0.00     PERCENT DISCREPANCY =           0.00






         TIME SUMMARY AT END OF TIME STEP    3 IN STRESS PERIOD    3
                    SECONDS     MINUTES      HOURS       DAYS        YEARS
                    -----------------------------------------------------------
   TIME STEP LENGTH 4.18152E+06  69692.      1161.5      48.397     0.13250    
 STRESS PERIOD TIME 9.87236E+06 1.64539E+05  2742.3      114.26     0.31284    
         TOTAL TIME 4.15207E+07 6.92011E+05  11534.      480.56      1.3157    
1
 
 SOLVING FOR HEAD 
     2 ITERATIONS FOR TIME STEP   4 IN STRESS PERIOD    3

 OUTPUT CONTROL FOR STRESS PERIOD    3   TIME STEP    4
    SAVE HEAD FOR ALL LAYERS
    SAVE DRAWDOWN FOR ALL LAYERS
    SAVE BUDGET
    PRINT HEAD FOR ALL LAYERS
    PRINT BUDGET
1
              HEAD IN LAYER   1 AT END OF TIME STEP   4 IN STRESS PERIOD    3
  ---------------------------------------------------------------------------

            1           2           3           4           5           6           7           8           9          10
           11          12          13          14          15          16          17          18          19          20
           21          22          23          24          25          26          27          28          29          30
           31          32          33          34          35          36          37          38          39          40
           41          42          43          44          45          46          47          48          49          50
           51          52          53          54          55          56          57          58          59          60
           61          62          63          64          65          66          67          68          69          70
           71          72          73          74          75          76          77          78          79          80
           81          82          83          84          85          86          87          88          89          90
           91          92          93          94          95          96          97          98          99         100
 ........................................................................................................................
   1    10.00       31.68       52.10       71.32       89.40       106.4       122.3       137.3       151.2       164.3    
        176.4       187.6       198.0       207.6       216.3       224.3       231.4       237.8       243.5       248.4    
        252.6       256.1       258.9       260.9       262.3       263.0       0.000       0.000       0.000       0.000    
        0.000       0.000       0.000       0.000       0.000       0.000       0.000       0.000       0.000       0.000    
        0.000       0.000       0.000       0.000       0.000       0.000       0.000       0.000       0.000       0.000    
        0.000       0.000       0.000       0.000       0.000       0.000       0.000       0.000       0.000       0.000    
        0.000       0.000       0.000       0.000       0.000       0.000       0.000       0.000       0.000       294.8    
        294.2       293.0       291.2       288.8       285.9       282.3       278.2       273.4       268.1       262.2    
        255.7       248.5       240.8       232.5       223.5       213.9       203.8       192.9       181.5       169.3    
        156.6       143.1       129.0       114.2       98.68       82.45       65.48       47.77       29.28       10.00    
1
              HEAD IN LAYER   2 AT END OF TIME STEP   4 IN STRESS PERIOD    3
  ---------------------------------------------------------------------------

            1           2           3           4           5           6           7           8           9          10
           11          12          13          14          15          16          17          18          19          20
           21          22          23          24          25          26          27          28          29          30
           31          32          33          34          35          36          37          38          39          40
           41          42          43          44          45          46          47          48          49          50
           51          52          53          54          55          56          57          58          59          60
           61          62          63          64          65          66          67          68          69          70
           71          72          73          74          75          76          77          78          79          80
           81          82          83          84          85          86          87          88          89          90
           91          92          93          94          95          96          97          98          99         100
 ........................................................................................................................
   1    187.1       187.1       187.2       187.3       187.4       187.5       187.7       187.8       188.0       188.1    
        188.3       188.5       188.7       188.8       189.0       189.2       189.3       189.5       189.6       189.7    
        189.8       189.9       190.0       190.1       190.2       190.2       190.3       190.3       190.4       190.4    
        190.4       190.5       190.5       190.5       190.6       190.6       190.7       190.7       190.7       190.8    
        190.8       190.9       190.9       190.9       191.0       191.0       191.1       191.1       191.1       191.2    
        191.2       191.3       191.3       191.4       191.4       191.4       191.5       191.5       191.6       191.6    
        191.6       191.7       191.7       191.8       191.8       191.9       191.9       192.0       192.0       192.0    
        192.1       192.1       192.1       192.0       192.0       191.9       191.8       191.7       191.6       191.5    
        191.4       191.2       191.1       190.9       190.7       190.5       190.3       190.1       189.9       189.8    
        189.6       189.4       189.2       189.1       188.9       188.8       188.7       188.6       188.5       188.5    
1
              HEAD IN LAYER   3 AT END OF TIME STEP   4 IN STRESS PERIOD    3
  ---------------------------------------------------------------------------

            1           2           3           4           5           6           7           8           9          10
           11          12          13          14          15          16          17          18          19          20
           21          22          23          24          25          26          27          28          29          30
           31          32          33          34          35          36          37          38          39          40
           41          42          43          44          45          46          47          48          49          50
           51          52          53          54          55          56          57          58          59          60
           61          62          63          64          65          66          67          68          69          70
           71          72          73          74          75          76          77          78          79          80
           81          82          83          84          85          86          87          88          89          90
           91          92          93          94          95          96          97          98          99         100
 ........................................................................................................................
   1    190.1       190.1       190.1       190.1       190.1       190.1       190.1       190.1       190.1       190.1    
        190.1       190.1       190.1       190.1       190.1       190.1       190.1       190.1       190.2       190.2    
        190.2       190.2       190.2       190.2       190.2       190.2       190.2       190.2       190.2       190.2    
        190.2       190.2       190.3       190.3       190.3       190.3       190.3       190.3       190.3       190.3    
        190.3       190.3       190.3       190.3       190.3       190.3       190.3       190.3       190.4       190.4    
        190.4       190.4       190.4       190.4       190.4       190.4       190.4       190.4       190.4       190.4    
        190.4       190.4       190.4       190.4       190.4       190.4       190.4       190.4       190.4       190.4    
        190.4       190.4       190.4       190.4       190.4       190.4       190.4       190.4       190.4       190.4    
        190.4       190.4       190.4       190.4       190.4       190.4       190.4       190.4       190.4       190.4    
        190.4       190.4       190.4       190.4       190.4       190.4       190.4       190.4       190.4       190.4    

 HEAD WILL BE SAVED ON UNIT   51 AT END OF TIME STEP    4, STRESS PERIOD    3

 DRAWDOWN WILL BE SAVED ON UNIT   52 AT END OF TIME STEP    4, STRESS PERIOD    3
1
  VOLUMETRIC BUDGET FOR ENTIRE MODEL AT END OF TIME STEP    4, STRESS PERIOD   3
  ------------------------------------------------------------------------------

     CUMULATIVE VOLUMES      L**3       RATES FOR THIS TIME STEP      L**3/T
     ------------------                 ------------------------

           IN:                                      IN:
           ---                                      ---
             STORAGE =           0.1458               STORAGE =       3.5874E-04
       CONSTANT HEAD =           0.0000         CONSTANT HEAD =           0.0000
               WELLS =           0.0000                 WELLS =           0.0000
            RECHARGE =    20445710.0000              RECHARGE =       37620.0000
    INST. IB STORAGE =           0.1931      INST. IB STORAGE =       4.9366E-04
    DELAY IB STORAGE =           0.5233      DELAY IB STORAGE =       8.5214E-05

            TOTAL IN =    20445710.0000              TOTAL IN =       37620.0000

          OUT:                                     OUT:
          ----                                     ----
             STORAGE =           0.1503               STORAGE =           0.0000
       CONSTANT HEAD =    20445710.0000         CONSTANT HEAD =       37620.0000
               WELLS =           0.0000                 WELLS =           0.0000
            RECHARGE =           0.0000              RECHARGE =           0.0000
    INST. IB STORAGE =           0.2007      INST. IB STORAGE =           0.0000
    DELAY IB STORAGE =           0.5198      DELAY IB STORAGE =       1.4679E-03

           TOTAL OUT =    20445710.0000             TOTAL OUT =       37620.0000

            IN - OUT =           0.0000              IN - OUT =           0.0000

 PERCENT DISCREPANCY =           0.00     PERCENT DISCREPANCY =           0.00






         TIME SUMMARY AT END OF TIME STEP    4 IN STRESS PERIOD    3
                    SECONDS     MINUTES      HOURS       DAYS        YEARS
                    -----------------------------------------------------------
   TIME STEP LENGTH 5.43598E+06  90600.      1510.0      62.916     0.17226    
 STRESS PERIOD TIME 1.53083E+07 2.55139E+05  4252.3      177.18     0.48509    
         TOTAL TIME 4.69567E+07 7.82611E+05  13044.      543.48      1.4880    
1
 
 SOLVING FOR HEAD 
     1 ITERATIONS FOR TIME STEP   5 IN STRESS PERIOD    3

 MAXIMUM HEAD CHANGE FOR EACH ITERATION:

    HEAD CHANGE   HEAD CHANGE   HEAD CHANGE   HEAD CHANGE   HEAD CHANGE
  LAYER,ROW,COL LAYER,ROW,COL LAYER,ROW,COL LAYER,ROW,COL LAYER,ROW,COL
 ----------------------------------------------------------------------
    -0.9466E-04
  (  3,  1,100)


 OUTPUT CONTROL FOR STRESS PERIOD    3   TIME STEP    5
    SAVE HEAD FOR ALL LAYERS
    SAVE DRAWDOWN FOR ALL LAYERS
    SAVE BUDGET
    PRINT HEAD FOR ALL LAYERS
    PRINT BUDGET
1
              HEAD IN LAYER   1 AT END OF TIME STEP   5 IN STRESS PERIOD    3
  ---------------------------------------------------------------------------

            1           2           3           4           5           6           7           8           9          10
           11          12          13          14          15          16          17          18          19          20
           21          22          23          24          25          26          27          28          29          30
           31          32          33          34          35          36          37          38          39          40
           41          42          43          44          45          46          47          48          49          50
           51          52          53          54          55          56          57          58          59          60
           61          62          63          64          65          66          67          68          69          70
           71          72          73          74          75          76          77          78          79          80
           81          82          83          84          85          86          87          88          89          90
           91          92          93          94          95          96          97          98          99         100
 ........................................................................................................................
   1    10.00       31.68       52.10       71.32       89.40       106.4       122.3       137.3       151.2       164.3    
        176.4       187.6       198.0       207.6       216.3       224.3       231.4       237.8       243.5       248.4    
        252.6       256.1       258.9       260.9       262.3       263.0       0.000       0.000       0.000       0.000    
        0.000       0.000       0.000       0.000       0.000       0.000       0.000       0.000       0.000       0.000    
        0.000       0.000       0.000       0.000       0.000       0.000       0.000       0.000       0.000       0.000    
        0.000       0.000       0.000       0.000       0.000       0.000       0.000       0.000       0.000       0.000    
        0.000       0.000       0.000       0.000       0.000       0.000       0.000       0.000       0.000       294.8    
        294.2       293.0       291.2       288.8       285.9       282.3       278.2       273.4       268.1       262.2    
        255.7       248.5       240.8       232.5       223.5       213.9       203.8       192.9       181.5       169.3    
        156.6       143.1       129.0       114.2       98.68       82.45       65.48       47.77       29.28       10.00    
1
              HEAD IN LAYER   2 AT END OF TIME STEP   5 IN STRESS PERIOD    3
  ---------------------------------------------------------------------------

            1           2           3           4           5           6           7           8           9          10
           11          12          13          14          15          16          17          18          19          20
           21          22          23          24          25          26          27          28          29          30
           31          32          33          34          35          36          37          38          39          40
           41          42          43          44          45          46          47          48          49          50
           51          52          53          54          55          56          57          58          59          60
           61          62          63          64          65          66          67          68          69          70
           71          72          73          74          75          76          77          78          79          80
           81          82          83          84          85          86          87          88          89          90
           91          92          93          94          95          96          97          98          99         100
 ........................................................................................................................
   1    187.1       187.1       187.2       187.3       187.4       187.5       187.7       187.8       188.0       188.1    
        188.3       188.5       188.7       188.8       189.0       189.2       189.3       189.5       189.6       189.7    
        189.8       189.9       190.0       190.1       190.2       190.2       190.3       190.3       190.4       190.4    
        190.4       190.5       190.5       190.5       190.6       190.6       190.7       190.7       190.7       190.8    
        190.8       190.9       190.9       190.9       191.0       191.0       191.1       191.1       191.1       191.2    
        191.2       191.3       191.3       191.4       191.4       191.4       191.5       191.5       191.6       191.6    
        191.6       191.7       191.7       191.8       191.8       191.9       191.9       192.0       192.0       192.0    
        192.1       192.1       192.1       192.0       192.0       191.9       191.8       191.7       191.6       191.5    
        191.4       191.2       191.1       190.9       190.7       190.5       190.3       190.1       189.9       189.8    
        189.6       189.4       189.2       189.1       188.9       188.8       188.7       188.6       188.5       188.5    
1
              HEAD IN LAYER   3 AT END OF TIME STEP   5 IN STRESS PERIOD    3
  ---------------------------------------------------------------------------

            1           2           3           4           5           6           7           8           9          10
           11          12          13          14          15          16          17          18          19          20
           21          22          23          24          25          26          27          28          29          30
           31          32          33          34          35          36          37          38          39          40
           41          42          43          44          45          46          47          48          49          50
           51          52          53          54          55          56          57          58          59          60
           61          62          63          64          65          66          67          68          69          70
           71          72          73          74          75          76          77          78          79          80
           81          82          83          84          85          86          87          88          89          90
           91          92          93          94          95          96          97          98          99         100
 ........................................................................................................................
   1    190.1       190.1       190.1       190.1       190.1       190.1       190.1       190.1       190.1       190.1    
        190.1       190.1       190.1       190.1       190.1       190.1       190.1       190.1       190.2       190.2    
        190.2       190.2       190.2       190.2       190.2       190.2       190.2       190.2       190.2       190.2    
        190.2       190.2       190.3       190.3       190.3       190.3       190.3       190.3       190.3       190.3    
        190.3       190.3       190.3       190.3       190.3       190.3       190.3       190.3       190.4       190.4    
        190.4       190.4       190.4       190.4       190.4       190.4       190.4       190.4       190.4       190.4    
        190.4       190.4       190.4       190.4       190.4       190.4       190.4       190.4       190.4       190.4    
        190.4       190.4       190.4       190.4       190.4       190.4       190.4       190.4       190.4       190.4    
        190.4       190.4       190.4       190.4       190.4       190.4       190.4       190.4       190.4       190.4    
        190.4       190.4       190.4       190.4       190.4       190.4       190.4       190.4       190.4       190.4    

 HEAD WILL BE SAVED ON UNIT   51 AT END OF TIME STEP    5, STRESS PERIOD    3

 DRAWDOWN WILL BE SAVED ON UNIT   52 AT END OF TIME STEP    5, STRESS PERIOD    3
1
  VOLUMETRIC BUDGET FOR ENTIRE MODEL AT END OF TIME STEP    5, STRESS PERIOD   3
  ------------------------------------------------------------------------------

     CUMULATIVE VOLUMES      L**3       RATES FOR THIS TIME STEP      L**3/T
     ------------------                 ------------------------

           IN:                                      IN:
           ---                                      ---
             STORAGE =           0.1565               STORAGE =       1.3020E-04
       CONSTANT HEAD =           0.0000         CONSTANT HEAD =           0.0000
               WELLS =           0.0000                 WELLS =           0.0000
            RECHARGE =    23522702.0000              RECHARGE =       37620.0000
    INST. IB STORAGE =           0.2102      INST. IB STORAGE =       2.0876E-04
    DELAY IB STORAGE =           0.5554      DELAY IB STORAGE =       3.9240E-04

            TOTAL IN =    23522702.0000              TOTAL IN =       37620.0000

          OUT:                                     OUT:
          ----                                     ----
             STORAGE =           0.1532               STORAGE =       3.5912E-05
       CONSTANT HEAD =    23522702.0000         CONSTANT HEAD =       37620.0000
               WELLS =           0.0000                 WELLS =           0.0000
            RECHARGE =           0.0000              RECHARGE =           0.0000
    INST. IB STORAGE =           0.2007      INST. IB STORAGE =       7.4623E-07
    DELAY IB STORAGE =           0.5689      DELAY IB STORAGE =       6.0065E-04

           TOTAL OUT =    23522702.0000             TOTAL OUT =       37620.0000

            IN - OUT =           0.0000              IN - OUT =           0.0000

 PERCENT DISCREPANCY =           0.00     PERCENT DISCREPANCY =           0.00






         TIME SUMMARY AT END OF TIME STEP    5 IN STRESS PERIOD    3
                    SECONDS     MINUTES      HOURS       DAYS        YEARS
                    -----------------------------------------------------------
   TIME STEP LENGTH 7.06678E+06 1.17780E+05  1963.0      81.791     0.22393    
 STRESS PERIOD TIME 2.23751E+07 3.72919E+05  6215.3      258.97     0.70902    
         TOTAL TIME 5.40234E+07 9.00391E+05  15007.      625.27      1.7119    
1
 
 SOLVING FOR HEAD 
     2 ITERATIONS FOR TIME STEP   6 IN STRESS PERIOD    3

 MAXIMUM HEAD CHANGE FOR EACH ITERATION:

    HEAD CHANGE   HEAD CHANGE   HEAD CHANGE   HEAD CHANGE   HEAD CHANGE
  LAYER,ROW,COL LAYER,ROW,COL LAYER,ROW,COL LAYER,ROW,COL LAYER,ROW,COL
 ----------------------------------------------------------------------
     0.1371E-03    0.5739E-04
  (  3,  1,  4) (  2,  1, 41)


 OUTPUT CONTROL FOR STRESS PERIOD    3   TIME STEP    6
    SAVE HEAD FOR ALL LAYERS
    SAVE DRAWDOWN FOR ALL LAYERS
    SAVE BUDGET
    PRINT HEAD FOR ALL LAYERS
    PRINT BUDGET
1
              HEAD IN LAYER   1 AT END OF TIME STEP   6 IN STRESS PERIOD    3
  ---------------------------------------------------------------------------

            1           2           3           4           5           6           7           8           9          10
           11          12          13          14          15          16          17          18          19          20
           21          22          23          24          25          26          27          28          29          30
           31          32          33          34          35          36          37          38          39          40
           41          42          43          44          45          46          47          48          49          50
           51          52          53          54          55          56          57          58          59          60
           61          62          63          64          65          66          67          68          69          70
           71          72          73          74          75          76          77          78          79          80
           81          82          83          84          85          86          87          88          89          90
           91          92          93          94          95          96          97          98          99         100
 ........................................................................................................................
   1    10.00       31.68       52.10       71.32       89.40       106.4       122.3       137.3       151.2       164.3    
        176.4       187.6       198.0       207.6       216.3       224.3       231.4       237.8       243.5       248.4    
        252.6       256.1       258.9       260.9       262.3       263.0       0.000       0.000       0.000       0.000    
        0.000       0.000       0.000       0.000       0.000       0.000       0.000       0.000       0.000       0.000    
        0.000       0.000       0.000       0.000       0.000       0.000       0.000       0.000       0.000       0.000    
        0.000       0.000       0.000       0.000       0.000       0.000       0.000       0.000       0.000       0.000    
        0.000       0.000       0.000       0.000       0.000       0.000       0.000       0.000       0.000       294.8    
        294.2       293.0       291.2       288.8       285.9       282.3       278.2       273.4       268.1       262.2    
        255.7       248.5       240.8       232.5       223.5       213.9       203.8       192.9       181.5       169.3    
        156.6       143.1       129.0       114.2       98.68       82.45       65.48       47.77       29.28       10.00    
1
              HEAD IN LAYER   2 AT END OF TIME STEP   6 IN STRESS PERIOD    3
  ---------------------------------------------------------------------------

            1           2           3           4           5           6           7           8           9          10
           11          12          13          14          15          16          17          18          19          20
           21          22          23          24          25          26          27          28          29          30
           31          32          33          34          35          36          37          38          39          40
           41          42          43          44          45          46          47          48          49          50
           51          52          53          54          55          56          57          58          59          60
           61          62          63          64          65          66          67          68          69          70
           71          72          73          74          75          76          77          78          79          80
           81          82          83          84          85          86          87          88          89          90
           91          92          93          94          95          96          97          98          99         100
 ........................................................................................................................
   1    187.1       187.1       187.2       187.3       187.4       187.5       187.7       187.8       188.0       188.1    
        188.3       188.5       188.7       188.8       189.0       189.2       189.3       189.5       189.6       189.7    
        189.8       189.9       190.0       190.1       190.2       190.2       190.3       190.3       190.4       190.4    
        190.4       190.5       190.5       190.5       190.6       190.6       190.7       190.7       190.7       190.8    
        190.8       190.9       190.9       190.9       191.0       191.0       191.1       191.1       191.1       191.2    
        191.2       191.3       191.3       191.4       191.4       191.4       191.5       191.5       191.6       191.6    
        191.6       191.7       191.7       191.8       191.8       191.9       191.9       192.0       192.0       192.0    
        192.1       192.1       192.1       192.0       192.0       191.9       191.8       191.7       191.6       191.5    
        191.4       191.2       191.1       190.9       190.7       190.5       190.3       190.1       189.9       189.8    
        189.6       189.4       189.2       189.1       188.9       188.8       188.7       188.6       188.5       188.5    
1
              HEAD IN LAYER   3 AT END OF TIME STEP   6 IN STRESS PERIOD    3
  ---------------------------------------------------------------------------

            1           2           3           4           5           6           7           8           9          10
           11          12          13          14          15          16          17          18          19          20
           21          22          23          24          25          26          27          28          29          30
           31          32          33          34          35          36          37          38          39          40
           41          42          43          44          45          46          47          48          49          50
           51          52          53          54          55          56          57          58          59          60
           61          62          63          64          65          66          67          68          69          70
           71          72          73          74          75          76          77          78          79          80
           81          82          83          84          85          86          87          88          89          90
           91          92          93          94          95          96          97          98          99         100
 ........................................................................................................................
   1    190.1       190.1       190.1       190.1       190.1       190.1       190.1       190.1       190.1       190.1    
        190.1       190.1       190.1       190.1       190.1       190.1       190.1       190.2       190.2       190.2    
        190.2       190.2       190.2       190.2       190.2       190.2       190.2       190.2       190.2       190.2    
        190.2       190.2       190.3       190.3       190.3       190.3       190.3       190.3       190.3       190.3    
        190.3       190.3       190.3       190.3       190.3       190.3       190.3       190.3       190.4       190.4    
        190.4       190.4       190.4       190.4       190.4       190.4       190.4       190.4       190.4       190.4    
        190.4       190.4       190.4       190.4       190.4       190.4       190.4       190.4       190.4       190.4    
        190.4       190.4       190.4       190.4       190.4       190.4       190.4       190.4       190.4       190.4    
        190.4       190.4       190.4       190.4       190.4       190.4       190.4       190.4       190.4       190.4    
        190.4       190.4       190.4       190.4       190.4       190.4       190.4       190.4       190.4       190.4    

 HEAD WILL BE SAVED ON UNIT   51 AT END OF TIME STEP    6, STRESS PERIOD    3

 DRAWDOWN WILL BE SAVED ON UNIT   52 AT END OF TIME STEP    6, STRESS PERIOD    3
1
  VOLUMETRIC BUDGET FOR ENTIRE MODEL AT END OF TIME STEP    6, STRESS PERIOD   3
  ------------------------------------------------------------------------------

     CUMULATIVE VOLUMES      L**3       RATES FOR THIS TIME STEP      L**3/T
     ------------------                 ------------------------

           IN:                                      IN:
           ---                                      ---
             STORAGE =           0.1600               STORAGE =       3.3150E-05
       CONSTANT HEAD =           0.0000         CONSTANT HEAD =           0.0000
               WELLS =           0.0000                 WELLS =           0.0000
            RECHARGE =    27522792.0000              RECHARGE =       37620.0000
    INST. IB STORAGE =           0.2103      INST. IB STORAGE =       7.1753E-07
    DELAY IB STORAGE =           0.6568      DELAY IB STORAGE =       9.5405E-04

            TOTAL IN =    27522792.0000              TOTAL IN =       37620.0000

          OUT:                                     OUT:
          ----                                     ----
             STORAGE =           0.1769               STORAGE =       2.2228E-04
       CONSTANT HEAD =    27522792.0000         CONSTANT HEAD =       37620.0000
               WELLS =           0.0000                 WELLS =           0.0000
            RECHARGE =           0.0000              RECHARGE =           0.0000
    INST. IB STORAGE =           0.2337      INST. IB STORAGE =       3.1026E-04
    DELAY IB STORAGE =           0.5740      DELAY IB STORAGE =       4.7219E-05

           TOTAL OUT =    27522792.0000             TOTAL OUT =       37620.0000

            IN - OUT =           0.0000              IN - OUT =           0.0000

 PERCENT DISCREPANCY =           0.00     PERCENT DISCREPANCY =           0.00






         TIME SUMMARY AT END OF TIME STEP    6 IN STRESS PERIOD    3
                    SECONDS     MINUTES      HOURS       DAYS        YEARS
                    -----------------------------------------------------------
   TIME STEP LENGTH 9.18681E+06 1.53113E+05  2551.9      106.33     0.29111    
 STRESS PERIOD TIME 3.15619E+07 5.26032E+05  8767.2      365.30      1.0001    
         TOTAL TIME 6.32102E+07 1.05350E+06  17558.      731.60      2.0030    
1

                               VOLUMETRIC BUDGET FOR SYSTEMS OF DELAY INTERBEDS
                                          AT END OF TIME STEP  6 IN STRESS PERIOD  3

          |   C U M U L A T I V E   V O L U M E S   L**3           | R A T E S   F O R  T H I S  T I M E  S T E P   L**3/T  |
   SYSTEM |    CHANGE IN     BOUNDARY                    PERCENT   |    CHANGE IN     BOUNDARY                    PERCENT   |
   NUMBER |     STORAGE        FLOW           SUM      DISCREPANCY |     STORAGE        FLOW           SUM      DISCREPANCY |
  --------|--------------------------------------------------------|--------------------------------------------------------|
      1    0.22543E-01   -0.22543E-01    0.37253E-08    0.16526E-04    0.26431E-03   -0.26431E-03     0.0000         0.0000    
      2    0.60314E-01   -0.60314E-01   -0.18626E-07   -0.30882E-04    0.64252E-03   -0.64252E-03     0.0000         0.0000    
  --------|--------------------------------------------------------|--------------------------------------------------------|
 TOTALS:    0.82857E-01   -0.82857E-01   -0.14901E-07   -0.17984E-04    0.90683E-03   -0.90683E-03     0.0000         0.0000    
1
                            STRESS PERIOD NO.    4, LENGTH =   365.3000    
                            -----------------------------------------------

                              NUMBER OF TIME STEPS =     6

                               MULTIPLIER FOR DELT =     1.300

                            INITIAL TIME STEP SIZE =   28.63744    

 WELL NO.  LAYER   ROW   COL   STRESS RATE         
 --------------------------------------------------
      1      1      1     50     -0.1532E+06

      1 WELL 

 REUSING RECH FROM LAST STRESS PERIOD
 
 SOLVING FOR HEAD 

     2 ITERATIONS FOR TIME STEP   1 IN STRESS PERIOD    4

 OUTPUT CONTROL FOR STRESS PERIOD    4   TIME STEP    1
    SAVE HEAD FOR ALL LAYERS
    SAVE DRAWDOWN FOR ALL LAYERS
    SAVE BUDGET
    PRINT HEAD FOR ALL LAYERS
    PRINT BUDGET
1
              HEAD IN LAYER   1 AT END OF TIME STEP   1 IN STRESS PERIOD    4
  ---------------------------------------------------------------------------

            1           2           3           4           5           6           7           8           9          10
           11          12          13          14          15          16          17          18          19          20
           21          22          23          24          25          26          27          28          29          30
           31          32          33          34          35          36          37          38          39          40
           41          42          43          44          45          46          47          48          49          50
           51          52          53          54          55          56          57          58          59          60
           61          62          63          64          65          66          67          68          69          70
           71          72          73          74          75          76          77          78          79          80
           81          82          83          84          85          86          87          88          89          90
           91          92          93          94          95          96          97          98          99         100
 ........................................................................................................................
   1    10.00       31.68       52.10       71.32       89.40       106.4       122.3       137.3       151.2       164.3    
        176.4       187.6       198.0       207.6       216.3       224.3       231.4       237.8       243.5       248.4    
        252.6       256.1       258.9       260.9       262.3       263.0       0.000       0.000       0.000       0.000    
        0.000       0.000       0.000       0.000       0.000       0.000       0.000       0.000       0.000       0.000    
        0.000       0.000       0.000       0.000       0.000       0.000       0.000       0.000       0.000       0.000    
        0.000       0.000       0.000       0.000       0.000       0.000       0.000       0.000       0.000       0.000    
        0.000       0.000       0.000       0.000       0.000       0.000       0.000       0.000       0.000       294.8    
        294.2       293.0       291.2       288.8       285.9       282.3       278.2       273.4       268.1       262.2    
        255.7       248.5       240.8       232.5       223.5       213.9       203.8       192.9       181.5       169.3    
        156.6       143.1       129.0       114.2       98.68       82.45       65.48       47.77       29.28       10.00    
1
              HEAD IN LAYER   2 AT END OF TIME STEP   1 IN STRESS PERIOD    4
  ---------------------------------------------------------------------------

            1           2           3           4           5           6           7           8           9          10
           11          12          13          14          15          16          17          18          19          20
           21          22          23          24          25          26          27          28          29          30
           31          32          33          34          35          36          37          38          39          40
           41          42          43          44          45          46          47          48          49          50
           51          52          53          54          55          56          57          58          59          60
           61          62          63          64          65          66          67          68          69          70
           71          72          73          74          75          76          77          78          79          80
           81          82          83          84          85          86          87          88          89          90
           91          92          93          94          95          96          97          98          99         100
 ........................................................................................................................
   1    187.1       187.1       187.2       187.3       187.4       187.5       187.7       187.8       188.0       188.1    
        188.3       188.5       188.7       188.8       189.0       189.2       189.3       189.5       189.6       189.7    
        189.8       189.9       190.0       190.1       190.2       190.2       190.3       190.3       190.4       190.4    
        190.4       190.5       190.5       190.5       190.6       190.6       190.7       190.7       190.7       190.8    
        190.8       190.9       190.9       190.9       191.0       191.0       191.1       191.1       191.1       191.2    
        191.2       191.3       191.3       191.4       191.4       191.4       191.5       191.5       191.6       191.6    
        191.6       191.7       191.7       191.8       191.8       191.9       191.9       192.0       192.0       192.0    
        192.1       192.1       192.1       192.0       192.0       191.9       191.8       191.7       191.6       191.5    
        191.4       191.2       191.1       190.9       190.7       190.5       190.3       190.1       189.9       189.8    
        189.6       189.4       189.2       189.1       188.9       188.8       188.7       188.6       188.5       188.5    
1
              HEAD IN LAYER   3 AT END OF TIME STEP   1 IN STRESS PERIOD    4
  ---------------------------------------------------------------------------

            1           2           3           4           5           6           7           8           9          10
           11          12          13          14          15          16          17          18          19          20
           21          22          23          24          25          26          27          28          29          30
           31          32          33          34          35          36          37          38          39          40
           41          42          43          44          45          46          47          48          49          50
           51          52          53          54          55          56          57          58          59          60
           61          62          63          64          65          66          67          68          69          70
           71          72          73          74          75          76          77          78          79          80
           81          82          83          84          85          86          87          88          89          90
           91          92          93          94          95          96          97          98          99         100
 ........................................................................................................................
   1    190.1       190.1       190.1       190.1       190.1       190.1       190.1       190.1       190.1       190.1    
        190.1       190.1       190.1       190.1       190.1       190.1       190.1       190.1       190.2       190.2    
        190.2       190.2       190.2       190.2       190.2       190.2       190.2       190.2       190.2       190.2    
        190.2       190.2       190.3       190.3       190.3       190.3       190.3       190.3       190.3       190.3    
        190.3       190.3       190.3       190.3       190.3       190.3       190.3       190.3       190.4       190.4    
        190.4       190.4       190.4       190.4       190.4       190.4       190.4       190.4       190.4       190.4    
        190.4       190.4       190.4       190.4       190.4       190.4       190.4       190.4       190.4       190.4    
        190.4       190.4       190.4       190.4       190.4       190.4       190.4       190.4       190.4       190.4    
        190.4       190.4       190.4       190.4       190.4       190.4       190.4       190.4       190.4       190.4    
        190.4       190.4       190.4       190.4       190.4       190.4       190.4       190.4       190.4       190.4    

 HEAD WILL BE SAVED ON UNIT   51 AT END OF TIME STEP    1, STRESS PERIOD    4

 DRAWDOWN WILL BE SAVED ON UNIT   52 AT END OF TIME STEP    1, STRESS PERIOD    4
1
  VOLUMETRIC BUDGET FOR ENTIRE MODEL AT END OF TIME STEP    1, STRESS PERIOD   4
  ------------------------------------------------------------------------------

     CUMULATIVE VOLUMES      L**3       RATES FOR THIS TIME STEP      L**3/T
     ------------------                 ------------------------

           IN:                                      IN:
           ---                                      ---
             STORAGE =           0.2012               STORAGE =       1.4384E-03
       CONSTANT HEAD =           0.0000         CONSTANT HEAD =           0.0000
               WELLS =           0.0000                 WELLS =           0.0000
            RECHARGE =    28600132.0000              RECHARGE =       37620.0000
    INST. IB STORAGE =           0.2741      INST. IB STORAGE =       2.2267E-03
    DELAY IB STORAGE =           0.6691      DELAY IB STORAGE =       4.3040E-04

            TOTAL IN =    28600132.0000              TOTAL IN =       37620.0039

          OUT:                                     OUT:
          ----                                     ----
             STORAGE =           0.1772               STORAGE =       1.0257E-05
       CONSTANT HEAD =    28600132.0000         CONSTANT HEAD =       37620.0000
               WELLS =           0.0000                 WELLS =           0.0000
            RECHARGE =           0.0000              RECHARGE =           0.0000
    INST. IB STORAGE =           0.2337      INST. IB STORAGE =       2.6641E-07
    DELAY IB STORAGE =           0.6852      DELAY IB STORAGE =       3.8855E-03

           TOTAL OUT =    28600132.0000             TOTAL OUT =       37620.0039

            IN - OUT =           0.0000              IN - OUT =           0.0000

 PERCENT DISCREPANCY =           0.00     PERCENT DISCREPANCY =           0.00






         TIME SUMMARY AT END OF TIME STEP    1 IN STRESS PERIOD    4
                    SECONDS     MINUTES      HOURS       DAYS        YEARS
                    -----------------------------------------------------------
   TIME STEP LENGTH 2.47427E+06  41238.      687.30      28.637     7.84050E-02
 STRESS PERIOD TIME 2.47427E+06  41238.      687.30      28.637     7.84050E-02
         TOTAL TIME 6.56845E+07 1.09474E+06  18246.      760.24      2.0814    
1
 
 SOLVING FOR HEAD 
     2 ITERATIONS FOR TIME STEP   2 IN STRESS PERIOD    4

 OUTPUT CONTROL FOR STRESS PERIOD    4   TIME STEP    2
    SAVE HEAD FOR ALL LAYERS
    SAVE DRAWDOWN FOR ALL LAYERS
    SAVE BUDGET
    PRINT HEAD FOR ALL LAYERS
    PRINT BUDGET
1
              HEAD IN LAYER   1 AT END OF TIME STEP   2 IN STRESS PERIOD    4
  ---------------------------------------------------------------------------

            1           2           3           4           5           6           7           8           9          10
           11          12          13          14          15          16          17          18          19          20
           21          22          23          24          25          26          27          28          29          30
           31          32          33          34          35          36          37          38          39          40
           41          42          43          44          45          46          47          48          49          50
           51          52          53          54          55          56          57          58          59          60
           61          62          63          64          65          66          67          68          69          70
           71          72          73          74          75          76          77          78          79          80
           81          82          83          84          85          86          87          88          89          90
           91          92          93          94          95          96          97          98          99         100
 ........................................................................................................................
   1    10.00       31.68       52.10       71.32       89.40       106.4       122.3       137.3       151.2       164.3    
        176.4       187.6       198.0       207.6       216.3       224.3       231.4       237.8       243.5       248.4    
        252.6       256.1       258.9       260.9       262.3       263.0       0.000       0.000       0.000       0.000    
        0.000       0.000       0.000       0.000       0.000       0.000       0.000       0.000       0.000       0.000    
        0.000       0.000       0.000       0.000       0.000       0.000       0.000       0.000       0.000       0.000    
        0.000       0.000       0.000       0.000       0.000       0.000       0.000       0.000       0.000       0.000    
        0.000       0.000       0.000       0.000       0.000       0.000       0.000       0.000       0.000       294.8    
        294.2       293.0       291.2       288.8       285.9       282.3       278.2       273.4       268.1       262.2    
        255.7       248.5       240.8       232.5       223.5       213.9       203.8       192.9       181.5       169.3    
        156.6       143.1       129.0       114.2       98.68       82.45       65.48       47.77       29.28       10.00    
1
              HEAD IN LAYER   2 AT END OF TIME STEP   2 IN STRESS PERIOD    4
  ---------------------------------------------------------------------------

            1           2           3           4           5           6           7           8           9          10
           11          12          13          14          15          16          17          18          19          20
           21          22          23          24          25          26          27          28          29          30
           31          32          33          34          35          36          37          38          39          40
           41          42          43          44          45          46          47          48          49          50
           51          52          53          54          55          56          57          58          59          60
           61          62          63          64          65          66          67          68          69          70
           71          72          73          74          75          76          77          78          79          80
           81          82          83          84          85          86          87          88          89          90
           91          92          93          94          95          96          97          98          99         100
 ........................................................................................................................
   1    187.1       187.1       187.2       187.3       187.4       187.5       187.7       187.8       188.0       188.1    
        188.3       188.5       188.7       188.8       189.0       189.2       189.3       189.5       189.6       189.7    
        189.8       189.9       190.0       190.1       190.2       190.2       190.3       190.3       190.4       190.4    
        190.4       190.5       190.5       190.5       190.6       190.6       190.7       190.7       190.7       190.8    
        190.8       190.9       190.9       190.9       191.0       191.0       191.1       191.1       191.1       191.2    
        191.2       191.3       191.3       191.4       191.4       191.4       191.5       191.5       191.6       191.6    
        191.6       191.7       191.7       191.8       191.8       191.9       191.9       192.0       192.0       192.0    
        192.1       192.1       192.1       192.0       192.0       191.9       191.8       191.7       191.6       191.5    
        191.4       191.2       191.1       190.9       190.7       190.5       190.3       190.1       189.9       189.8    
        189.6       189.4       189.2       189.1       188.9       188.8       188.7       188.6       188.5       188.5    
1
              HEAD IN LAYER   3 AT END OF TIME STEP   2 IN STRESS PERIOD    4
  ---------------------------------------------------------------------------

            1           2           3           4           5           6           7           8           9          10
           11          12          13          14          15          16          17          18          19          20
           21          22          23          24          25          26          27          28          29          30
           31          32          33          34          35          36          37          38          39          40
           41          42          43          44          45          46          47          48          49          50
           51          52          53          54          55          56          57          58          59          60
           61          62          63          64          65          66          67          68          69          70
           71          72          73          74          75          76          77          78          79          80
           81          82          83          84          85          86          87          88          89          90
           91          92          93          94          95          96          97          98          99         100
 ........................................................................................................................
   1    190.1       190.1       190.1       190.1       190.1       190.1       190.1       190.1       190.1       190.1    
        190.1       190.1       190.1       190.1       190.1       190.1       190.1       190.1       190.2       190.2    
        190.2       190.2       190.2       190.2       190.2       190.2       190.2       190.2       190.2       190.2    
        190.2       190.2       190.3       190.3       190.3       190.3       190.3       190.3       190.3       190.3    
        190.3       190.3       190.3       190.3       190.3       190.3       190.3       190.3       190.4       190.4    
        190.4       190.4       190.4       190.4       190.4       190.4       190.4       190.4       190.4       190.4    
        190.4       190.4       190.4       190.4       190.4       190.4       190.4       190.4       190.4       190.4    
        190.4       190.4       190.4       190.4       190.4       190.4       190.4       190.4       190.4       190.4    
        190.4       190.4       190.4       190.4       190.4       190.4       190.4       190.4       190.4       190.4    
        190.4       190.4       190.4       190.4       190.4       190.4       190.4       190.4       190.4       190.4    

 HEAD WILL BE SAVED ON UNIT   51 AT END OF TIME STEP    2, STRESS PERIOD    4

 DRAWDOWN WILL BE SAVED ON UNIT   52 AT END OF TIME STEP    2, STRESS PERIOD    4
1
  VOLUMETRIC BUDGET FOR ENTIRE MODEL AT END OF TIME STEP    2, STRESS PERIOD   4
  ------------------------------------------------------------------------------

     CUMULATIVE VOLUMES      L**3       RATES FOR THIS TIME STEP      L**3/T
     ------------------                 ------------------------

           IN:                                      IN:
           ---                                      ---
             STORAGE =           0.2054               STORAGE =       1.1368E-04
       CONSTANT HEAD =           0.0000         CONSTANT HEAD =           0.0000
               WELLS =           0.0000                 WELLS =           0.0000
            RECHARGE =    30000674.0000              RECHARGE =       37620.0000
    INST. IB STORAGE =           0.2765      INST. IB STORAGE =       6.6603E-05
    DELAY IB STORAGE =           0.7219      DELAY IB STORAGE =       1.4185E-03

            TOTAL IN =    30000674.0000              TOTAL IN =       37620.0000

          OUT:                                     OUT:
          ----                                     ----
             STORAGE =           0.1928               STORAGE =       4.1998E-04
       CONSTANT HEAD =    30000674.0000         CONSTANT HEAD =       37620.0000
               WELLS =           0.0000                 WELLS =           0.0000
            RECHARGE =           0.0000              RECHARGE =           0.0000
    INST. IB STORAGE =           0.2499      INST. IB STORAGE =       4.3364E-04
    DELAY IB STORAGE =           0.6915      DELAY IB STORAGE =       1.6752E-04

           TOTAL OUT =    30000674.0000             TOTAL OUT =       37620.0000

            IN - OUT =           0.0000              IN - OUT =           0.0000

 PERCENT DISCREPANCY =           0.00     PERCENT DISCREPANCY =           0.00






         TIME SUMMARY AT END OF TIME STEP    2 IN STRESS PERIOD    4
                    SECONDS     MINUTES      HOURS       DAYS        YEARS
                    -----------------------------------------------------------
   TIME STEP LENGTH 3.21656E+06  53609.      893.49      37.229     0.10193    
 STRESS PERIOD TIME 5.69083E+06  94847.      1580.8      65.866     0.18033    
         TOTAL TIME 6.89011E+07 1.14835E+06  19139.      797.47      2.1833    
1
 
 SOLVING FOR HEAD 
     2 ITERATIONS FOR TIME STEP   3 IN STRESS PERIOD    4

 OUTPUT CONTROL FOR STRESS PERIOD    4   TIME STEP    3
    SAVE HEAD FOR ALL LAYERS
    SAVE DRAWDOWN FOR ALL LAYERS
    SAVE BUDGET
    PRINT HEAD FOR ALL LAYERS
    PRINT BUDGET
1
              HEAD IN LAYER   1 AT END OF TIME STEP   3 IN STRESS PERIOD    4
  ---------------------------------------------------------------------------

            1           2           3           4           5           6           7           8           9          10
           11          12          13          14          15          16          17          18          19          20
           21          22          23          24          25          26          27          28          29          30
           31          32          33          34          35          36          37          38          39          40
           41          42          43          44          45          46          47          48          49          50
           51          52          53          54          55          56          57          58          59          60
           61          62          63          64          65          66          67          68          69          70
           71          72          73          74          75          76          77          78          79          80
           81          82          83          84          85          86          87          88          89          90
           91          92          93          94          95          96          97          98          99         100
 ........................................................................................................................
   1    10.00       31.68       52.10       71.32       89.40       106.4       122.3       137.3       151.2       164.3    
        176.4       187.6       198.0       207.6       216.3       224.3       231.4       237.8       243.5       248.4    
        252.6       256.1       258.9       260.9       262.3       263.0       0.000       0.000       0.000       0.000    
        0.000       0.000       0.000       0.000       0.000       0.000       0.000       0.000       0.000       0.000    
        0.000       0.000       0.000       0.000       0.000       0.000       0.000       0.000       0.000       0.000    
        0.000       0.000       0.000       0.000       0.000       0.000       0.000       0.000       0.000       0.000    
        0.000       0.000       0.000       0.000       0.000       0.000       0.000       0.000       0.000       294.8    
        294.2       293.0       291.2       288.8       285.9       282.3       278.2       273.4       268.1       262.2    
        255.7       248.5       240.8       232.5       223.5       213.9       203.8       192.9       181.5       169.3    
        156.6       143.1       129.0       114.2       98.68       82.45       65.48       47.77       29.28       10.00    
1
              HEAD IN LAYER   2 AT END OF TIME STEP   3 IN STRESS PERIOD    4
  ---------------------------------------------------------------------------

            1           2           3           4           5           6           7           8           9          10
           11          12          13          14          15          16          17          18          19          20
           21          22          23          24          25          26          27          28          29          30
           31          32          33          34          35          36          37          38          39          40
           41          42          43          44          45          46          47          48          49          50
           51          52          53          54          55          56          57          58          59          60
           61          62          63          64          65          66          67          68          69          70
           71          72          73          74          75          76          77          78          79          80
           81          82          83          84          85          86          87          88          89          90
           91          92          93          94          95          96          97          98          99         100
 ........................................................................................................................
   1    187.1       187.1       187.2       187.3       187.4       187.5       187.7       187.8       188.0       188.1    
        188.3       188.5       188.7       188.8       189.0       189.2       189.3       189.5       189.6       189.7    
        189.8       189.9       190.0       190.1       190.2       190.2       190.3       190.3       190.4       190.4    
        190.4       190.5       190.5       190.5       190.6       190.6       190.7       190.7       190.7       190.8    
        190.8       190.9       190.9       190.9       191.0       191.0       191.1       191.1       191.1       191.2    
        191.2       191.3       191.3       191.4       191.4       191.4       191.5       191.5       191.6       191.6    
        191.6       191.7       191.7       191.8       191.8       191.9       191.9       192.0       192.0       192.0    
        192.1       192.1       192.1       192.0       192.0       191.9       191.8       191.7       191.6       191.5    
        191.4       191.2       191.1       190.9       190.7       190.5       190.3       190.1       189.9       189.8    
        189.6       189.4       189.2       189.1       188.9       188.8       188.7       188.6       188.5       188.5    
1
              HEAD IN LAYER   3 AT END OF TIME STEP   3 IN STRESS PERIOD    4
  ---------------------------------------------------------------------------

            1           2           3           4           5           6           7           8           9          10
           11          12          13          14          15          16          17          18          19          20
           21          22          23          24          25          26          27          28          29          30
           31          32          33          34          35          36          37          38          39          40
           41          42          43          44          45          46          47          48          49          50
           51          52          53          54          55          56          57          58          59          60
           61          62          63          64          65          66          67          68          69          70
           71          72          73          74          75          76          77          78          79          80
           81          82          83          84          85          86          87          88          89          90
           91          92          93          94          95          96          97          98          99         100
 ........................................................................................................................
   1    190.1       190.1       190.1       190.1       190.1       190.1       190.1       190.1       190.1       190.1    
        190.1       190.1       190.1       190.1       190.1       190.1       190.1       190.2       190.2       190.2    
        190.2       190.2       190.2       190.2       190.2       190.2       190.2       190.2       190.2       190.2    
        190.2       190.2       190.3       190.3       190.3       190.3       190.3       190.3       190.3       190.3    
        190.3       190.3       190.3       190.3       190.3       190.3       190.3       190.3       190.4       190.4    
        190.4       190.4       190.4       190.4       190.4       190.4       190.4       190.4       190.4       190.4    
        190.4       190.4       190.4       190.4       190.4       190.4       190.4       190.4       190.4       190.4    
        190.4       190.4       190.4       190.4       190.4       190.4       190.4       190.4       190.4       190.4    
        190.4       190.4       190.4       190.4       190.4       190.4       190.4       190.4       190.4       190.4    
        190.4       190.4       190.4       190.4       190.4       190.4       190.4       190.4       190.4       190.4    

 HEAD WILL BE SAVED ON UNIT   51 AT END OF TIME STEP    3, STRESS PERIOD    4

 DRAWDOWN WILL BE SAVED ON UNIT   52 AT END OF TIME STEP    3, STRESS PERIOD    4
1
  VOLUMETRIC BUDGET FOR ENTIRE MODEL AT END OF TIME STEP    3, STRESS PERIOD   4
  ------------------------------------------------------------------------------

     CUMULATIVE VOLUMES      L**3       RATES FOR THIS TIME STEP      L**3/T
     ------------------                 ------------------------

           IN:                                      IN:
           ---                                      ---
             STORAGE =           0.2078               STORAGE =       4.8553E-05
       CONSTANT HEAD =           0.0000         CONSTANT HEAD =           0.0000
               WELLS =           0.0000                 WELLS =           0.0000
            RECHARGE =    31821380.0000              RECHARGE =       37620.0000
    INST. IB STORAGE =           0.2766      INST. IB STORAGE =       9.4585E-07
    DELAY IB STORAGE =           0.8319      DELAY IB STORAGE =       2.2727E-03

            TOTAL IN =    31821380.0000              TOTAL IN =       37620.0039

          OUT:                                     OUT:
          ----                                     ----
             STORAGE =           0.2311               STORAGE =       7.9056E-04
       CONSTANT HEAD =    31821380.0000         CONSTANT HEAD =       37620.0000
               WELLS =           0.0000                 WELLS =           0.0000
            RECHARGE =           0.0000              RECHARGE =           0.0000
    INST. IB STORAGE =           0.3120      INST. IB STORAGE =       1.2843E-03
    DELAY IB STORAGE =           0.7307      DELAY IB STORAGE =       8.1020E-04

           TOTAL OUT =    31821380.0000             TOTAL OUT =       37620.0000

            IN - OUT =           0.0000              IN - OUT =       3.9062E-03

 PERCENT DISCREPANCY =           0.00     PERCENT DISCREPANCY =           0.00






         TIME SUMMARY AT END OF TIME STEP    3 IN STRESS PERIOD    4
                    SECONDS     MINUTES      HOURS       DAYS        YEARS
                    -----------------------------------------------------------
   TIME STEP LENGTH 4.18152E+06  69692.      1161.5      48.397     0.13250    
 STRESS PERIOD TIME 9.87236E+06 1.64539E+05  2742.3      114.26     0.31284    
         TOTAL TIME 7.30826E+07 1.21804E+06  20301.      845.86      2.3158    
1
 
 SOLVING FOR HEAD 
     2 ITERATIONS FOR TIME STEP   4 IN STRESS PERIOD    4

 OUTPUT CONTROL FOR STRESS PERIOD    4   TIME STEP    4
    SAVE HEAD FOR ALL LAYERS
    SAVE DRAWDOWN FOR ALL LAYERS
    SAVE BUDGET
    PRINT HEAD FOR ALL LAYERS
    PRINT BUDGET
1
              HEAD IN LAYER   1 AT END OF TIME STEP   4 IN STRESS PERIOD    4
  ---------------------------------------------------------------------------

            1           2           3           4           5           6           7           8           9          10
           11          12          13          14          15          16          17          18          19          20
           21          22          23          24          25          26          27          28          29          30
           31          32          33          34          35          36          37          38          39          40
           41          42          43          44          45          46          47          48          49          50
           51          52          53          54          55          56          57          58          59          60
           61          62          63          64          65          66          67          68          69          70
           71          72          73          74          75          76          77          78          79          80
           81          82          83          84          85          86          87          88          89          90
           91          92          93          94          95          96          97          98          99         100
 ........................................................................................................................
   1    10.00       31.68       52.10       71.32       89.40       106.4       122.3       137.3       151.2       164.3    
        176.4       187.6       198.0       207.6       216.3       224.3       231.4       237.8       243.5       248.4    
        252.6       256.1       258.9       260.9       262.3       263.0       0.000       0.000       0.000       0.000    
        0.000       0.000       0.000       0.000       0.000       0.000       0.000       0.000       0.000       0.000    
        0.000       0.000       0.000       0.000       0.000       0.000       0.000       0.000       0.000       0.000    
        0.000       0.000       0.000       0.000       0.000       0.000       0.000       0.000       0.000       0.000    
        0.000       0.000       0.000       0.000       0.000       0.000       0.000       0.000       0.000       294.8    
        294.2       293.0       291.2       288.8       285.9       282.3       278.2       273.4       268.1       262.2    
        255.7       248.5       240.8       232.5       223.5       213.9       203.8       192.9       181.5       169.3    
        156.6       143.1       129.0       114.2       98.68       82.45       65.48       47.77       29.28       10.00    
1
              HEAD IN LAYER   2 AT END OF TIME STEP   4 IN STRESS PERIOD    4
  ---------------------------------------------------------------------------

            1           2           3           4           5           6           7           8           9          10
           11          12          13          14          15          16          17          18          19          20
           21          22          23          24          25          26          27          28          29          30
           31          32          33          34          35          36          37          38          39          40
           41          42          43          44          45          46          47          48          49          50
           51          52          53          54          55          56          57          58          59          60
           61          62          63          64          65          66          67          68          69          70
           71          72          73          74          75          76          77          78          79          80
           81          82          83          84          85          86          87          88          89          90
           91          92          93          94          95          96          97          98          99         100
 ........................................................................................................................
   1    187.1       187.1       187.2       187.3       187.4       187.5       187.7       187.8       188.0       188.1    
        188.3       188.5       188.7       188.8       189.0       189.2       189.3       189.5       189.6       189.7    
        189.8       189.9       190.0       190.1       190.2       190.2       190.3       190.3       190.4       190.4    
        190.4       190.5       190.5       190.5       190.6       190.6       190.7       190.7       190.7       190.8    
        190.8       190.9       190.9       190.9       191.0       191.0       191.1       191.1       191.1       191.2    
        191.2       191.3       191.3       191.4       191.4       191.4       191.5       191.5       191.6       191.6    
        191.6       191.7       191.7       191.8       191.8       191.9       191.9       192.0       192.0       192.0    
        192.1       192.1       192.1       192.0       192.0       191.9       191.8       191.7       191.6       191.5    
        191.4       191.2       191.1       190.9       190.7       190.5       190.3       190.1       189.9       189.8    
        189.6       189.4       189.2       189.1       188.9       188.8       188.7       188.6       188.5       188.5    
1
              HEAD IN LAYER   3 AT END OF TIME STEP   4 IN STRESS PERIOD    4
  ---------------------------------------------------------------------------

            1           2           3           4           5           6           7           8           9          10
           11          12          13          14          15          16          17          18          19          20
           21          22          23          24          25          26          27          28          29          30
           31          32          33          34          35          36          37          38          39          40
           41          42          43          44          45          46          47          48          49          50
           51          52          53          54          55          56          57          58          59          60
           61          62          63          64          65          66          67          68          69          70
           71          72          73          74          75          76          77          78          79          80
           81          82          83          84          85          86          87          88          89          90
           91          92          93          94          95          96          97          98          99         100
 ........................................................................................................................
   1    190.1       190.1       190.1       190.1       190.1       190.1       190.1       190.1       190.1       190.1    
        190.1       190.1       190.1       190.1       190.1       190.1       190.1       190.1       190.2       190.2    
        190.2       190.2       190.2       190.2       190.2       190.2       190.2       190.2       190.2       190.2    
        190.2       190.2       190.3       190.3       190.3       190.3       190.3       190.3       190.3       190.3    
        190.3       190.3       190.3       190.3       190.3       190.3       190.3       190.3       190.4       190.4    
        190.4       190.4       190.4       190.4       190.4       190.4       190.4       190.4       190.4       190.4    
        190.4       190.4       190.4       190.4       190.4       190.4       190.4       190.4       190.4       190.4    
        190.4       190.4       190.4       190.4       190.4       190.4       190.4       190.4       190.4       190.4    
        190.4       190.4       190.4       190.4       190.4       190.4       190.4       190.4       190.4       190.4    
        190.4       190.4       190.4       190.4       190.4       190.4       190.4       190.4       190.4       190.4    

 HEAD WILL BE SAVED ON UNIT   51 AT END OF TIME STEP    4, STRESS PERIOD    4

 DRAWDOWN WILL BE SAVED ON UNIT   52 AT END OF TIME STEP    4, STRESS PERIOD    4
1
  VOLUMETRIC BUDGET FOR ENTIRE MODEL AT END OF TIME STEP    4, STRESS PERIOD   4
  ------------------------------------------------------------------------------

     CUMULATIVE VOLUMES      L**3       RATES FOR THIS TIME STEP      L**3/T
     ------------------                 ------------------------

           IN:                                      IN:
           ---                                      ---
             STORAGE =           0.2296               STORAGE =       3.4722E-04
       CONSTANT HEAD =           0.0000         CONSTANT HEAD =           0.0000
               WELLS =           0.0000                 WELLS =           0.0000
            RECHARGE =    34188296.0000              RECHARGE =       37620.0000
    INST. IB STORAGE =           0.3065      INST. IB STORAGE =       4.7595E-04
    DELAY IB STORAGE =           0.8395      DELAY IB STORAGE =       1.2036E-04

            TOTAL IN =    34188296.0000              TOTAL IN =       37620.0000

          OUT:                                     OUT:
          ----                                     ----
             STORAGE =           0.2311               STORAGE =           0.0000
       CONSTANT HEAD =    34188296.0000         CONSTANT HEAD =       37620.0000
               WELLS =           0.0000                 WELLS =           0.0000
            RECHARGE =           0.0000              RECHARGE =           0.0000
    INST. IB STORAGE =           0.3120      INST. IB STORAGE =           0.0000
    DELAY IB STORAGE =           0.8267      DELAY IB STORAGE =       1.5261E-03

           TOTAL OUT =    34188296.0000             TOTAL OUT =       37620.0000

            IN - OUT =           0.0000              IN - OUT =           0.0000

 PERCENT DISCREPANCY =           0.00     PERCENT DISCREPANCY =           0.00






         TIME SUMMARY AT END OF TIME STEP    4 IN STRESS PERIOD    4
                    SECONDS     MINUTES      HOURS       DAYS        YEARS
                    -----------------------------------------------------------
   TIME STEP LENGTH 5.43598E+06  90600.      1510.0      62.916     0.17226    
 STRESS PERIOD TIME 1.53083E+07 2.55139E+05  4252.3      177.18     0.48509    
         TOTAL TIME 7.85186E+07 1.30864E+06  21811.      908.78      2.4881    
1
 
 SOLVING FOR HEAD 
     1 ITERATIONS FOR TIME STEP   5 IN STRESS PERIOD    4

 MAXIMUM HEAD CHANGE FOR EACH ITERATION:

    HEAD CHANGE   HEAD CHANGE   HEAD CHANGE   HEAD CHANGE   HEAD CHANGE
  LAYER,ROW,COL LAYER,ROW,COL LAYER,ROW,COL LAYER,ROW,COL LAYER,ROW,COL
 ----------------------------------------------------------------------
    -0.8318E-04
  (  3,  1, 87)


 OUTPUT CONTROL FOR STRESS PERIOD    4   TIME STEP    5
    SAVE HEAD FOR ALL LAYERS
    SAVE DRAWDOWN FOR ALL LAYERS
    SAVE BUDGET
    PRINT HEAD FOR ALL LAYERS
    PRINT BUDGET
1
              HEAD IN LAYER   1 AT END OF TIME STEP   5 IN STRESS PERIOD    4
  ---------------------------------------------------------------------------

            1           2           3           4           5           6           7           8           9          10
           11          12          13          14          15          16          17          18          19          20
           21          22          23          24          25          26          27          28          29          30
           31          32          33          34          35          36          37          38          39          40
           41          42          43          44          45          46          47          48          49          50
           51          52          53          54          55          56          57          58          59          60
           61          62          63          64          65          66          67          68          69          70
           71          72          73          74          75          76          77          78          79          80
           81          82          83          84          85          86          87          88          89          90
           91          92          93          94          95          96          97          98          99         100
 ........................................................................................................................
   1    10.00       31.68       52.10       71.32       89.40       106.4       122.3       137.3       151.2       164.3    
        176.4       187.6       198.0       207.6       216.3       224.3       231.4       237.8       243.5       248.4    
        252.6       256.1       258.9       260.9       262.3       263.0       0.000       0.000       0.000       0.000    
        0.000       0.000       0.000       0.000       0.000       0.000       0.000       0.000       0.000       0.000    
        0.000       0.000       0.000       0.000       0.000       0.000       0.000       0.000       0.000       0.000    
        0.000       0.000       0.000       0.000       0.000       0.000       0.000       0.000       0.000       0.000    
        0.000       0.000       0.000       0.000       0.000       0.000       0.000       0.000       0.000       294.8    
        294.2       293.0       291.2       288.8       285.9       282.3       278.2       273.4       268.1       262.2    
        255.7       248.5       240.8       232.5       223.5       213.9       203.8       192.9       181.5       169.3    
        156.6       143.1       129.0       114.2       98.68       82.45       65.48       47.77       29.28       10.00    
1
              HEAD IN LAYER   2 AT END OF TIME STEP   5 IN STRESS PERIOD    4
  ---------------------------------------------------------------------------

            1           2           3           4           5           6           7           8           9          10
           11          12          13          14          15          16          17          18          19          20
           21          22          23          24          25          26          27          28          29          30
           31          32          33          34          35          36          37          38          39          40
           41          42          43          44          45          46          47          48          49          50
           51          52          53          54          55          56          57          58          59          60
           61          62          63          64          65          66          67          68          69          70
           71          72          73          74          75          76          77          78          79          80
           81          82          83          84          85          86          87          88          89          90
           91          92          93          94          95          96          97          98          99         100
 ........................................................................................................................
   1    187.1       187.1       187.2       187.3       187.4       187.5       187.7       187.8       188.0       188.1    
        188.3       188.5       188.7       188.8       189.0       189.2       189.3       189.5       189.6       189.7    
        189.8       189.9       190.0       190.1       190.2       190.2       190.3       190.3       190.4       190.4    
        190.4       190.5       190.5       190.5       190.6       190.6       190.7       190.7       190.7       190.8    
        190.8       190.9       190.9       190.9       191.0       191.0       191.1       191.1       191.1       191.2    
        191.2       191.3       191.3       191.4       191.4       191.4       191.5       191.5       191.6       191.6    
        191.6       191.7       191.7       191.8       191.8       191.9       191.9       192.0       192.0       192.0    
        192.1       192.1       192.1       192.0       192.0       191.9       191.8       191.7       191.6       191.5    
        191.4       191.2       191.1       190.9       190.7       190.5       190.3       190.1       189.9       189.8    
        189.6       189.4       189.2       189.1       188.9       188.8       188.7       188.6       188.5       188.5    
1
              HEAD IN LAYER   3 AT END OF TIME STEP   5 IN STRESS PERIOD    4
  ---------------------------------------------------------------------------

            1           2           3           4           5           6           7           8           9          10
           11          12          13          14          15          16          17          18          19          20
           21          22          23          24          25          26          27          28          29          30
           31          32          33          34          35          36          37          38          39          40
           41          42          43          44          45          46          47          48          49          50
           51          52          53          54          55          56          57          58          59          60
           61          62          63          64          65          66          67          68          69          70
           71          72          73          74          75          76          77          78          79          80
           81          82          83          84          85          86          87          88          89          90
           91          92          93          94          95          96          97          98          99         100
 ........................................................................................................................
   1    190.1       190.1       190.1       190.1       190.1       190.1       190.1       190.1       190.1       190.1    
        190.1       190.1       190.1       190.1       190.1       190.1       190.1       190.1       190.2       190.2    
        190.2       190.2       190.2       190.2       190.2       190.2       190.2       190.2       190.2       190.2    
        190.2       190.2       190.3       190.3       190.3       190.3       190.3       190.3       190.3       190.3    
        190.3       190.3       190.3       190.3       190.3       190.3       190.3       190.3       190.4       190.4    
        190.4       190.4       190.4       190.4       190.4       190.4       190.4       190.4       190.4       190.4    
        190.4       190.4       190.4       190.4       190.4       190.4       190.4       190.4       190.4       190.4    
        190.4       190.4       190.4       190.4       190.4       190.4       190.4       190.4       190.4       190.4    
        190.4       190.4       190.4       190.4       190.4       190.4       190.4       190.4       190.4       190.4    
        190.4       190.4       190.4       190.4       190.4       190.4       190.4       190.4       190.4       190.4    

 HEAD WILL BE SAVED ON UNIT   51 AT END OF TIME STEP    5, STRESS PERIOD    4

 DRAWDOWN WILL BE SAVED ON UNIT   52 AT END OF TIME STEP    5, STRESS PERIOD    4
1
  VOLUMETRIC BUDGET FOR ENTIRE MODEL AT END OF TIME STEP    5, STRESS PERIOD   4
  ------------------------------------------------------------------------------

     CUMULATIVE VOLUMES      L**3       RATES FOR THIS TIME STEP      L**3/T
     ------------------                 ------------------------

           IN:                                      IN:
           ---                                      ---
             STORAGE =           0.2402               STORAGE =       1.2935E-04
       CONSTANT HEAD =           0.0000         CONSTANT HEAD =           0.0000
               WELLS =           0.0000                 WELLS =           0.0000
            RECHARGE =    37265288.0000              RECHARGE =       37620.0000
    INST. IB STORAGE =           0.3235      INST. IB STORAGE =       2.0801E-04
    DELAY IB STORAGE =           0.8699      DELAY IB STORAGE =       3.7211E-04

            TOTAL IN =    37265288.0000              TOTAL IN =       37620.0000

          OUT:                                     OUT:
          ----                                     ----
             STORAGE =           0.2358               STORAGE =       5.7460E-05
       CONSTANT HEAD =    37265288.0000         CONSTANT HEAD =       37620.0000
               WELLS =           0.0000                 WELLS =           0.0000
            RECHARGE =           0.0000              RECHARGE =           0.0000
    INST. IB STORAGE =           0.3122      INST. IB STORAGE =       1.4925E-06
    DELAY IB STORAGE =           0.8772      DELAY IB STORAGE =       6.1777E-04

           TOTAL OUT =    37265288.0000             TOTAL OUT =       37620.0000

            IN - OUT =           0.0000              IN - OUT =           0.0000

 PERCENT DISCREPANCY =           0.00     PERCENT DISCREPANCY =           0.00






         TIME SUMMARY AT END OF TIME STEP    5 IN STRESS PERIOD    4
                    SECONDS     MINUTES      HOURS       DAYS        YEARS
                    -----------------------------------------------------------
   TIME STEP LENGTH 7.06678E+06 1.17780E+05  1963.0      81.791     0.22393    
 STRESS PERIOD TIME 2.23751E+07 3.72919E+05  6215.3      258.97     0.70902    
         TOTAL TIME 8.55854E+07 1.42642E+06  23774.      990.57      2.7120    
1
 
 SOLVING FOR HEAD 
     2 ITERATIONS FOR TIME STEP   6 IN STRESS PERIOD    4

 MAXIMUM HEAD CHANGE FOR EACH ITERATION:

    HEAD CHANGE   HEAD CHANGE   HEAD CHANGE   HEAD CHANGE   HEAD CHANGE
  LAYER,ROW,COL LAYER,ROW,COL LAYER,ROW,COL LAYER,ROW,COL LAYER,ROW,COL
 ----------------------------------------------------------------------
     0.1271E-03    0.5452E-04
  (  3,  1,  8) (  2,  1, 44)


 OUTPUT CONTROL FOR STRESS PERIOD    4   TIME STEP    6
    SAVE HEAD FOR ALL LAYERS
    SAVE DRAWDOWN FOR ALL LAYERS
    SAVE BUDGET
    PRINT HEAD FOR ALL LAYERS
    PRINT BUDGET
1
              HEAD IN LAYER   1 AT END OF TIME STEP   6 IN STRESS PERIOD    4
  ---------------------------------------------------------------------------

            1           2           3           4           5           6           7           8           9          10
           11          12          13          14          15          16          17          18          19          20
           21          22          23          24          25          26          27          28          29          30
           31          32          33          34          35          36          37          38          39          40
           41          42          43          44          45          46          47          48          49          50
           51          52          53          54          55          56          57          58          59          60
           61          62          63          64          65          66          67          68          69          70
           71          72          73          74          75          76          77          78          79          80
           81          82          83          84          85          86          87          88          89          90
           91          92          93          94          95          96          97          98          99         100
 ........................................................................................................................
   1    10.00       31.68       52.10       71.32       89.40       106.4       122.3       137.3       151.2       164.3    
        176.4       187.6       198.0       207.6       216.3       224.3       231.4       237.8       243.5       248.4    
        252.6       256.1       258.9       260.9       262.3       263.0       0.000       0.000       0.000       0.000    
        0.000       0.000       0.000       0.000       0.000       0.000       0.000       0.000       0.000       0.000    
        0.000       0.000       0.000       0.000       0.000       0.000       0.000       0.000       0.000       0.000    
        0.000       0.000       0.000       0.000       0.000       0.000       0.000       0.000       0.000       0.000    
        0.000       0.000       0.000       0.000       0.000       0.000       0.000       0.000       0.000       294.8    
        294.2       293.0       291.2       288.8       285.9       282.3       278.2       273.4       268.1       262.2    
        255.7       248.5       240.8       232.5       223.5       213.9       203.8       192.9       181.5       169.3    
        156.6       143.1       129.0       114.2       98.68       82.45       65.48       47.77       29.28       10.00    
1
              HEAD IN LAYER   2 AT END OF TIME STEP   6 IN STRESS PERIOD    4
  ---------------------------------------------------------------------------

            1           2           3           4           5           6           7           8           9          10
           11          12          13          14          15          16          17          18          19          20
           21          22          23          24          25          26          27          28          29          30
           31          32          33          34          35          36          37          38          39          40
           41          42          43          44          45          46          47          48          49          50
           51          52          53          54          55          56          57          58          59          60
           61          62          63          64          65          66          67          68          69          70
           71          72          73          74          75          76          77          78          79          80
           81          82          83          84          85          86          87          88          89          90
           91          92          93          94          95          96          97          98          99         100
 ........................................................................................................................
   1    187.1       187.1       187.2       187.3       187.4       187.5       187.7       187.8       188.0       188.1    
        188.3       188.5       188.7       188.8       189.0       189.2       189.3       189.5       189.6       189.7    
        189.8       189.9       190.0       190.1       190.2       190.2       190.3       190.3       190.4       190.4    
        190.4       190.5       190.5       190.5       190.6       190.6       190.7       190.7       190.7       190.8    
        190.8       190.9       190.9       190.9       191.0       191.0       191.1       191.1       191.1       191.2    
        191.2       191.3       191.3       191.4       191.4       191.4       191.5       191.5       191.6       191.6    
        191.6       191.7       191.7       191.8       191.8       191.9       191.9       192.0       192.0       192.0    
        192.1       192.1       192.1       192.0       192.0       191.9       191.8       191.7       191.6       191.5    
        191.4       191.2       191.1       190.9       190.7       190.5       190.3       190.1       189.9       189.8    
        189.6       189.4       189.2       189.1       188.9       188.8       188.7       188.6       188.5       188.5    
1
              HEAD IN LAYER   3 AT END OF TIME STEP   6 IN STRESS PERIOD    4
  ---------------------------------------------------------------------------

            1           2           3           4           5           6           7           8           9          10
           11          12          13          14          15          16          17          18          19          20
           21          22          23          24          25          26          27          28          29          30
           31          32          33          34          35          36          37          38          39          40
           41          42          43          44          45          46          47          48          49          50
           51          52          53          54          55          56          57          58          59          60
           61          62          63          64          65          66          67          68          69          70
           71          72          73          74          75          76          77          78          79          80
           81          82          83          84          85          86          87          88          89          90
           91          92          93          94          95          96          97          98          99         100
 ........................................................................................................................
   1    190.1       190.1       190.1       190.1       190.1       190.1       190.1       190.1       190.1       190.1    
        190.1       190.1       190.1       190.1       190.1       190.1       190.1       190.2       190.2       190.2    
        190.2       190.2       190.2       190.2       190.2       190.2       190.2       190.2       190.2       190.2    
        190.2       190.2       190.3       190.3       190.3       190.3       190.3       190.3       190.3       190.3    
        190.3       190.3       190.3       190.3       190.3       190.3       190.3       190.3       190.4       190.4    
        190.4       190.4       190.4       190.4       190.4       190.4       190.4       190.4       190.4       190.4    
        190.4       190.4       190.4       190.4       190.4       190.4       190.4       190.4       190.4       190.4    
        190.4       190.4       190.4       190.4       190.4       190.4       190.4       190.4       190.4       190.4    
        190.4       190.4       190.4       190.4       190.4       190.4       190.4       190.4       190.4       190.4    
        190.4       190.4       190.4       190.4       190.4       190.4       190.4       190.4       190.4       190.4    

 HEAD WILL BE SAVED ON UNIT   51 AT END OF TIME STEP    6, STRESS PERIOD    4

 DRAWDOWN WILL BE SAVED ON UNIT   52 AT END OF TIME STEP    6, STRESS PERIOD    4
1
  VOLUMETRIC BUDGET FOR ENTIRE MODEL AT END OF TIME STEP    6, STRESS PERIOD   4
  ------------------------------------------------------------------------------

     CUMULATIVE VOLUMES      L**3       RATES FOR THIS TIME STEP      L**3/T
     ------------------                 ------------------------

           IN:                                      IN:
           ---                                      ---
             STORAGE =           0.2437               STORAGE =       3.3150E-05
       CONSTANT HEAD =           0.0000         CONSTANT HEAD =           0.0000
               WELLS =           0.0000                 WELLS =           0.0000
            RECHARGE =    41265376.0000              RECHARGE =       37620.0000
    INST. IB STORAGE =           0.3236      INST. IB STORAGE =       7.1753E-07
    DELAY IB STORAGE =           0.9731      DELAY IB STORAGE =       9.7052E-04

            TOTAL IN =    41265376.0000              TOTAL IN =       37620.0000

          OUT:                                     OUT:
          ----                                     ----
             STORAGE =           0.2586               STORAGE =       2.1443E-04
       CONSTANT HEAD =    41265376.0000         CONSTANT HEAD =       37620.0000
               WELLS =           0.0000                 WELLS =           0.0000
            RECHARGE =           0.0000              RECHARGE =           0.0000
    INST. IB STORAGE =           0.3435      INST. IB STORAGE =       2.9476E-04
    DELAY IB STORAGE =           0.8832      DELAY IB STORAGE =       5.6234E-05

           TOTAL OUT =    41265376.0000             TOTAL OUT =       37620.0000

            IN - OUT =           0.0000              IN - OUT =           0.0000

 PERCENT DISCREPANCY =           0.00     PERCENT DISCREPANCY =           0.00






         TIME SUMMARY AT END OF TIME STEP    6 IN STRESS PERIOD    4
                    SECONDS     MINUTES      HOURS       DAYS        YEARS
                    -----------------------------------------------------------
   TIME STEP LENGTH 9.18681E+06 1.53113E+05  2551.9      106.33     0.29111    
 STRESS PERIOD TIME 3.15619E+07 5.26032E+05  8767.2      365.30      1.0001    
         TOTAL TIME 9.47722E+07 1.57954E+06  26326.      1096.9      3.0031    
1

                               VOLUMETRIC BUDGET FOR SYSTEMS OF DELAY INTERBEDS
                                          AT END OF TIME STEP  6 IN STRESS PERIOD  4

          |   C U M U L A T I V E   V O L U M E S   L**3           | R A T E S   F O R  T H I S  T I M E  S T E P   L**3/T  |
   SYSTEM |    CHANGE IN     BOUNDARY                    PERCENT   |    CHANGE IN     BOUNDARY                    PERCENT   |
   NUMBER |     STORAGE        FLOW           SUM      DISCREPANCY |     STORAGE        FLOW           SUM      DISCREPANCY |
  --------|--------------------------------------------------------|--------------------------------------------------------|
      1    0.28840E-01   -0.28840E-01    0.18626E-07    0.64585E-04    0.30051E-03   -0.30051E-03    0.58208E-10    0.19370E-04
      2    0.61102E-01   -0.61102E-01   -0.70781E-07   -0.11584E-03    0.61378E-03   -0.61378E-03   -0.11642E-09   -0.18967E-04
  --------|--------------------------------------------------------|--------------------------------------------------------|
 TOTALS:    0.89942E-01   -0.89942E-01   -0.52154E-07   -0.57986E-04    0.91429E-03   -0.91429E-03   -0.58208E-10   -0.63665E-05
1
                            STRESS PERIOD NO.    5, LENGTH =   365.3000    
                            -----------------------------------------------

                              NUMBER OF TIME STEPS =     6

                               MULTIPLIER FOR DELT =     1.300

                            INITIAL TIME STEP SIZE =   28.63744    

 WELL NO.  LAYER   ROW   COL   STRESS RATE         
 --------------------------------------------------
      1      1      1     50     -0.1532E+06

      1 WELL 

 REUSING RECH FROM LAST STRESS PERIOD
 
 SOLVING FOR HEAD 

     2 ITERATIONS FOR TIME STEP   1 IN STRESS PERIOD    5

 OUTPUT CONTROL FOR STRESS PERIOD    5   TIME STEP    1
    SAVE HEAD FOR ALL LAYERS
    SAVE DRAWDOWN FOR ALL LAYERS
    SAVE BUDGET
    PRINT HEAD FOR ALL LAYERS
    PRINT BUDGET
1
              HEAD IN LAYER   1 AT END OF TIME STEP   1 IN STRESS PERIOD    5
  ---------------------------------------------------------------------------

            1           2           3           4           5           6           7           8           9          10
           11          12          13          14          15          16          17          18          19          20
           21          22          23          24          25          26          27          28          29          30
           31          32          33          34          35          36          37          38          39          40
           41          42          43          44          45          46          47          48          49          50
           51          52          53          54          55          56          57          58          59          60
           61          62          63          64          65          66          67          68          69          70
           71          72          73          74          75          76          77          78          79          80
           81          82          83          84          85          86          87          88          89          90
           91          92          93          94          95          96          97          98          99         100
 ........................................................................................................................
   1    10.00       31.68       52.10       71.32       89.40       106.4       122.3       137.3       151.2       164.3    
        176.4       187.6       198.0       207.6       216.3       224.3       231.4       237.8       243.5       248.4    
        252.6       256.1       258.9       260.9       262.3       263.0       0.000       0.000       0.000       0.000    
        0.000       0.000       0.000       0.000       0.000       0.000       0.000       0.000       0.000       0.000    
        0.000       0.000       0.000       0.000       0.000       0.000       0.000       0.000       0.000       0.000    
        0.000       0.000       0.000       0.000       0.000       0.000       0.000       0.000       0.000       0.000    
        0.000       0.000       0.000       0.000       0.000       0.000       0.000       0.000       0.000       294.8    
        294.2       293.0       291.2       288.8       285.9       282.3       278.2       273.4       268.1       262.2    
        255.7       248.5       240.8       232.5       223.5       213.9       203.8       192.9       181.5       169.3    
        156.6       143.1       129.0       114.2       98.68       82.45       65.48       47.77       29.28       10.00    
1
              HEAD IN LAYER   2 AT END OF TIME STEP   1 IN STRESS PERIOD    5
  ---------------------------------------------------------------------------

            1           2           3           4           5           6           7           8           9          10
           11          12          13          14          15          16          17          18          19          20
           21          22          23          24          25          26          27          28          29          30
           31          32          33          34          35          36          37          38          39          40
           41          42          43          44          45          46          47          48          49          50
           51          52          53          54          55          56          57          58          59          60
           61          62          63          64          65          66          67          68          69          70
           71          72          73          74          75          76          77          78          79          80
           81          82          83          84          85          86          87          88          89          90
           91          92          93          94          95          96          97          98          99         100
 ........................................................................................................................
   1    187.1       187.1       187.2       187.3       187.4       187.5       187.7       187.8       188.0       188.1    
        188.3       188.5       188.7       188.8       189.0       189.2       189.3       189.5       189.6       189.7    
        189.8       189.9       190.0       190.1       190.2       190.2       190.3       190.3       190.4       190.4    
        190.4       190.5       190.5       190.5       190.6       190.6       190.7       190.7       190.7       190.8    
        190.8       190.9       190.9       190.9       191.0       191.0       191.1       191.1       191.1       191.2    
        191.2       191.3       191.3       191.4       191.4       191.4       191.5       191.5       191.6       191.6    
        191.6       191.7       191.7       191.8       191.8       191.9       191.9       192.0       192.0       192.0    
        192.1       192.1       192.1       192.0       192.0       191.9       191.8       191.7       191.6       191.5    
        191.4       191.2       191.1       190.9       190.7       190.5       190.3       190.1       189.9       189.8    
        189.6       189.4       189.2       189.1       188.9       188.8       188.7       188.6       188.5       188.5    
1
              HEAD IN LAYER   3 AT END OF TIME STEP   1 IN STRESS PERIOD    5
  ---------------------------------------------------------------------------

            1           2           3           4           5           6           7           8           9          10
           11          12          13          14          15          16          17          18          19          20
           21          22          23          24          25          26          27          28          29          30
           31          32          33          34          35          36          37          38          39          40
           41          42          43          44          45          46          47          48          49          50
           51          52          53          54          55          56          57          58          59          60
           61          62          63          64          65          66          67          68          69          70
           71          72          73          74          75          76          77          78          79          80
           81          82          83          84          85          86          87          88          89          90
           91          92          93          94          95          96          97          98          99         100
 ........................................................................................................................
   1    190.1       190.1       190.1       190.1       190.1       190.1       190.1       190.1       190.1       190.1    
        190.1       190.1       190.1       190.1       190.1       190.1       190.1       190.1       190.2       190.2    
        190.2       190.2       190.2       190.2       190.2       190.2       190.2       190.2       190.2       190.2    
        190.2       190.2       190.3       190.3       190.3       190.3       190.3       190.3       190.3       190.3    
        190.3       190.3       190.3       190.3       190.3       190.3       190.3       190.3       190.4       190.4    
        190.4       190.4       190.4       190.4       190.4       190.4       190.4       190.4       190.4       190.4    
        190.4       190.4       190.4       190.4       190.4       190.4       190.4       190.4       190.4       190.4    
        190.4       190.4       190.4       190.4       190.4       190.4       190.4       190.4       190.4       190.4    
        190.4       190.4       190.4       190.4       190.4       190.4       190.4       190.4       190.4       190.4    
        190.4       190.4       190.4       190.4       190.4       190.4       190.4       190.4       190.4       190.4    

 HEAD WILL BE SAVED ON UNIT   51 AT END OF TIME STEP    1, STRESS PERIOD    5

 DRAWDOWN WILL BE SAVED ON UNIT   52 AT END OF TIME STEP    1, STRESS PERIOD    5
1
  VOLUMETRIC BUDGET FOR ENTIRE MODEL AT END OF TIME STEP    1, STRESS PERIOD   5
  ------------------------------------------------------------------------------

     CUMULATIVE VOLUMES      L**3       RATES FOR THIS TIME STEP      L**3/T
     ------------------                 ------------------------

           IN:                                      IN:
           ---                                      ---
             STORAGE =           0.2839               STORAGE =       1.4031E-03
       CONSTANT HEAD =           0.0000         CONSTANT HEAD =           0.0000
               WELLS =           0.0000                 WELLS =           0.0000
            RECHARGE =    42342716.0000              RECHARGE =       37620.0000
    INST. IB STORAGE =           0.3857      INST. IB STORAGE =       2.1691E-03
    DELAY IB STORAGE =           0.9843      DELAY IB STORAGE =       3.9067E-04

            TOTAL IN =    42342716.0000              TOTAL IN =       37620.0039

          OUT:                                     OUT:
          ----                                     ----
             STORAGE =           0.2589               STORAGE =       1.0257E-05
       CONSTANT HEAD =    42342716.0000         CONSTANT HEAD =       37620.0000
               WELLS =           0.0000                 WELLS =           0.0000
            RECHARGE =           0.0000              RECHARGE =           0.0000
    INST. IB STORAGE =           0.3435      INST. IB STORAGE =       2.6641E-07
    DELAY IB STORAGE =           0.9913      DELAY IB STORAGE =       3.7758E-03

           TOTAL OUT =    42342716.0000             TOTAL OUT =       37620.0039

            IN - OUT =           0.0000              IN - OUT =           0.0000

 PERCENT DISCREPANCY =           0.00     PERCENT DISCREPANCY =           0.00






         TIME SUMMARY AT END OF TIME STEP    1 IN STRESS PERIOD    5
                    SECONDS     MINUTES      HOURS       DAYS        YEARS
                    -----------------------------------------------------------
   TIME STEP LENGTH 2.47427E+06  41238.      687.30      28.637     7.84050E-02
 STRESS PERIOD TIME 2.47427E+06  41238.      687.30      28.637     7.84050E-02
         TOTAL TIME 9.72464E+07 1.62077E+06  27013.      1125.5      3.0816    
1
 
 SOLVING FOR HEAD 
     2 ITERATIONS FOR TIME STEP   2 IN STRESS PERIOD    5

 OUTPUT CONTROL FOR STRESS PERIOD    5   TIME STEP    2
    SAVE HEAD FOR ALL LAYERS
    SAVE DRAWDOWN FOR ALL LAYERS
    SAVE BUDGET
    PRINT HEAD FOR ALL LAYERS
    PRINT BUDGET
1
              HEAD IN LAYER   1 AT END OF TIME STEP   2 IN STRESS PERIOD    5
  ---------------------------------------------------------------------------

            1           2           3           4           5           6           7           8           9          10
           11          12          13          14          15          16          17          18          19          20
           21          22          23          24          25          26          27          28          29          30
           31          32          33          34          35          36          37          38          39          40
           41          42          43          44          45          46          47          48          49          50
           51          52          53          54          55          56          57          58          59          60
           61          62          63          64          65          66          67          68          69          70
           71          72          73          74          75          76          77          78          79          80
           81          82          83          84          85          86          87          88          89          90
           91          92          93          94          95          96          97          98          99         100
 ........................................................................................................................
   1    10.00       31.68       52.10       71.32       89.40       106.4       122.3       137.3       151.2       164.3    
        176.4       187.6       198.0       207.6       216.3       224.3       231.4       237.8       243.5       248.4    
        252.6       256.1       258.9       260.9       262.3       263.0       0.000       0.000       0.000       0.000    
        0.000       0.000       0.000       0.000       0.000       0.000       0.000       0.000       0.000       0.000    
        0.000       0.000       0.000       0.000       0.000       0.000       0.000       0.000       0.000       0.000    
        0.000       0.000       0.000       0.000       0.000       0.000       0.000       0.000       0.000       0.000    
        0.000       0.000       0.000       0.000       0.000       0.000       0.000       0.000       0.000       294.8    
        294.2       293.0       291.2       288.8       285.9       282.3       278.2       273.4       268.1       262.2    
        255.7       248.5       240.8       232.5       223.5       213.9       203.8       192.9       181.5       169.3    
        156.6       143.1       129.0       114.2       98.68       82.45       65.48       47.77       29.28       10.00    
1
              HEAD IN LAYER   2 AT END OF TIME STEP   2 IN STRESS PERIOD    5
  ---------------------------------------------------------------------------

            1           2           3           4           5           6           7           8           9          10
           11          12          13          14          15          16          17          18          19          20
           21          22          23          24          25          26          27          28          29          30
           31          32          33          34          35          36          37          38          39          40
           41          42          43          44          45          46          47          48          49          50
           51          52          53          54          55          56          57          58          59          60
           61          62          63          64          65          66          67          68          69          70
           71          72          73          74          75          76          77          78          79          80
           81          82          83          84          85          86          87          88          89          90
           91          92          93          94          95          96          97          98          99         100
 ........................................................................................................................
   1    187.1       187.1       187.2       187.3       187.4       187.5       187.7       187.8       188.0       188.1    
        188.3       188.5       188.7       188.8       189.0       189.2       189.3       189.5       189.6       189.7    
        189.8       189.9       190.0       190.1       190.2       190.2       190.3       190.3       190.4       190.4    
        190.4       190.5       190.5       190.5       190.6       190.6       190.7       190.7       190.7       190.8    
        190.8       190.9       190.9       190.9       191.0       191.0       191.1       191.1       191.1       191.2    
        191.2       191.3       191.3       191.4       191.4       191.4       191.5       191.5       191.6       191.6    
        191.6       191.7       191.7       191.8       191.8       191.9       191.9       192.0       192.0       192.0    
        192.1       192.1       192.1       192.0       192.0       191.9       191.8       191.7       191.6       191.5    
        191.4       191.2       191.1       190.9       190.7       190.5       190.3       190.1       189.9       189.8    
        189.6       189.4       189.2       189.1       188.9       188.8       188.7       188.6       188.5       188.5    
1
              HEAD IN LAYER   3 AT END OF TIME STEP   2 IN STRESS PERIOD    5
  ---------------------------------------------------------------------------

            1           2           3           4           5           6           7           8           9          10
           11          12          13          14          15          16          17          18          19          20
           21          22          23          24          25          26          27          28          29          30
           31          32          33          34          35          36          37          38          39          40
           41          42          43          44          45          46          47          48          49          50
           51          52          53          54          55          56          57          58          59          60
           61          62          63          64          65          66          67          68          69          70
           71          72          73          74          75          76          77          78          79          80
           81          82          83          84          85          86          87          88          89          90
           91          92          93          94          95          96          97          98          99         100
 ........................................................................................................................
   1    190.1       190.1       190.1       190.1       190.1       190.1       190.1       190.1       190.1       190.1    
        190.1       190.1       190.1       190.1       190.1       190.1       190.1       190.1       190.2       190.2    
        190.2       190.2       190.2       190.2       190.2       190.2       190.2       190.2       190.2       190.2    
        190.2       190.2       190.3       190.3       190.3       190.3       190.3       190.3       190.3       190.3    
        190.3       190.3       190.3       190.3       190.3       190.3       190.3       190.3       190.4       190.4    
        190.4       190.4       190.4       190.4       190.4       190.4       190.4       190.4       190.4       190.4    
        190.4       190.4       190.4       190.4       190.4       190.4       190.4       190.4       190.4       190.4    
        190.4       190.4       190.4       190.4       190.4       190.4       190.4       190.4       190.4       190.4    
        190.4       190.4       190.4       190.4       190.4       190.4       190.4       190.4       190.4       190.4    
        190.4       190.4       190.4       190.4       190.4       190.4       190.4       190.4       190.4       190.4    

 HEAD WILL BE SAVED ON UNIT   51 AT END OF TIME STEP    2, STRESS PERIOD    5

 DRAWDOWN WILL BE SAVED ON UNIT   52 AT END OF TIME STEP    2, STRESS PERIOD    5
1
  VOLUMETRIC BUDGET FOR ENTIRE MODEL AT END OF TIME STEP    2, STRESS PERIOD   5
  ------------------------------------------------------------------------------

     CUMULATIVE VOLUMES      L**3       RATES FOR THIS TIME STEP      L**3/T
     ------------------                 ------------------------

           IN:                                      IN:
           ---                                      ---
             STORAGE =           0.2880               STORAGE =       1.1072E-04
       CONSTANT HEAD =           0.0000         CONSTANT HEAD =           0.0000
               WELLS =           0.0000                 WELLS =           0.0000
            RECHARGE =    43743260.0000              RECHARGE =       37620.0000
    INST. IB STORAGE =           0.3880      INST. IB STORAGE =       6.0455E-05
    DELAY IB STORAGE =           1.0361      DELAY IB STORAGE =       1.3914E-03

            TOTAL IN =    43743260.0000              TOTAL IN =       37620.0000

          OUT:                                     OUT:
          ----                                     ----
             STORAGE =           0.2755               STORAGE =       4.4683E-04
       CONSTANT HEAD =    43743260.0000         CONSTANT HEAD =       37620.0000
               WELLS =           0.0000                 WELLS =           0.0000
            RECHARGE =           0.0000              RECHARGE =           0.0000
    INST. IB STORAGE =           0.3613      INST. IB STORAGE =       4.7708E-04
    DELAY IB STORAGE =           0.9962      DELAY IB STORAGE =       1.3198E-04

           TOTAL OUT =    43743260.0000             TOTAL OUT =       37620.0000

            IN - OUT =           0.0000              IN - OUT =           0.0000

 PERCENT DISCREPANCY =           0.00     PERCENT DISCREPANCY =           0.00






         TIME SUMMARY AT END OF TIME STEP    2 IN STRESS PERIOD    5
                    SECONDS     MINUTES      HOURS       DAYS        YEARS
                    -----------------------------------------------------------
   TIME STEP LENGTH 3.21656E+06  53609.      893.49      37.229     0.10193    
 STRESS PERIOD TIME 5.69083E+06  94847.      1580.8      65.866     0.18033    
         TOTAL TIME 1.00463E+08 1.67438E+06  27906.      1162.8      3.1835    
1
 
 SOLVING FOR HEAD 
     2 ITERATIONS FOR TIME STEP   3 IN STRESS PERIOD    5

 OUTPUT CONTROL FOR STRESS PERIOD    5   TIME STEP    3
    SAVE HEAD FOR ALL LAYERS
    SAVE DRAWDOWN FOR ALL LAYERS
    SAVE BUDGET
    PRINT HEAD FOR ALL LAYERS
    PRINT BUDGET
1
              HEAD IN LAYER   1 AT END OF TIME STEP   3 IN STRESS PERIOD    5
  ---------------------------------------------------------------------------

            1           2           3           4           5           6           7           8           9          10
           11          12          13          14          15          16          17          18          19          20
           21          22          23          24          25          26          27          28          29          30
           31          32          33          34          35          36          37          38          39          40
           41          42          43          44          45          46          47          48          49          50
           51          52          53          54          55          56          57          58          59          60
           61          62          63          64          65          66          67          68          69          70
           71          72          73          74          75          76          77          78          79          80
           81          82          83          84          85          86          87          88          89          90
           91          92          93          94          95          96          97          98          99         100
 ........................................................................................................................
   1    10.00       31.68       52.10       71.32       89.40       106.4       122.3       137.3       151.2       164.3    
        176.4       187.6       198.0       207.6       216.3       224.3       231.4       237.8       243.5       248.4    
        252.6       256.1       258.9       260.9       262.3       263.0       0.000       0.000       0.000       0.000    
        0.000       0.000       0.000       0.000       0.000       0.000       0.000       0.000       0.000       0.000    
        0.000       0.000       0.000       0.000       0.000       0.000       0.000       0.000       0.000       0.000    
        0.000       0.000       0.000       0.000       0.000       0.000       0.000       0.000       0.000       0.000    
        0.000       0.000       0.000       0.000       0.000       0.000       0.000       0.000       0.000       294.8    
        294.2       293.0       291.2       288.8       285.9       282.3       278.2       273.4       268.1       262.2    
        255.7       248.5       240.8       232.5       223.5       213.9       203.8       192.9       181.5       169.3    
        156.6       143.1       129.0       114.2       98.68       82.45       65.48       47.77       29.28       10.00    
1
              HEAD IN LAYER   2 AT END OF TIME STEP   3 IN STRESS PERIOD    5
  ---------------------------------------------------------------------------

            1           2           3           4           5           6           7           8           9          10
           11          12          13          14          15          16          17          18          19          20
           21          22          23          24          25          26          27          28          29          30
           31          32          33          34          35          36          37          38          39          40
           41          42          43          44          45          46          47          48          49          50
           51          52          53          54          55          56          57          58          59          60
           61          62          63          64          65          66          67          68          69          70
           71          72          73          74          75          76          77          78          79          80
           81          82          83          84          85          86          87          88          89          90
           91          92          93          94          95          96          97          98          99         100
 ........................................................................................................................
   1    187.1       187.1       187.2       187.3       187.4       187.5       187.7       187.8       188.0       188.1    
        188.3       188.5       188.7       188.8       189.0       189.2       189.3       189.5       189.6       189.7    
        189.8       189.9       190.0       190.1       190.2       190.2       190.3       190.3       190.4       190.4    
        190.4       190.5       190.5       190.5       190.6       190.6       190.7       190.7       190.7       190.8    
        190.8       190.9       190.9       190.9       191.0       191.0       191.1       191.1       191.1       191.2    
        191.2       191.3       191.3       191.4       191.4       191.4       191.5       191.5       191.6       191.6    
        191.6       191.7       191.7       191.8       191.8       191.9       191.9       192.0       192.0       192.0    
        192.1       192.1       192.1       192.0       192.0       191.9       191.8       191.7       191.6       191.5    
        191.4       191.2       191.1       190.9       190.7       190.5       190.3       190.1       189.9       189.8    
        189.6       189.4       189.2       189.1       188.9       188.8       188.7       188.6       188.5       188.5    
1
              HEAD IN LAYER   3 AT END OF TIME STEP   3 IN STRESS PERIOD    5
  ---------------------------------------------------------------------------

            1           2           3           4           5           6           7           8           9          10
           11          12          13          14          15          16          17          18          19          20
           21          22          23          24          25          26          27          28          29          30
           31          32          33          34          35          36          37          38          39          40
           41          42          43          44          45          46          47          48          49          50
           51          52          53          54          55          56          57          58          59          60
           61          62          63          64          65          66          67          68          69          70
           71          72          73          74          75          76          77          78          79          80
           81          82          83          84          85          86          87          88          89          90
           91          92          93          94          95          96          97          98          99         100
 ........................................................................................................................
   1    190.1       190.1       190.1       190.1       190.1       190.1       190.1       190.1       190.1       190.1    
        190.1       190.1       190.1       190.1       190.1       190.1       190.1       190.2       190.2       190.2    
        190.2       190.2       190.2       190.2       190.2       190.2       190.2       190.2       190.2       190.2    
        190.2       190.2       190.3       190.3       190.3       190.3       190.3       190.3       190.3       190.3    
        190.3       190.3       190.3       190.3       190.3       190.3       190.3       190.3       190.4       190.4    
        190.4       190.4       190.4       190.4       190.4       190.4       190.4       190.4       190.4       190.4    
        190.4       190.4       190.4       190.4       190.4       190.4       190.4       190.4       190.4       190.4    
        190.4       190.4       190.4       190.4       190.4       190.4       190.4       190.4       190.4       190.4    
        190.4       190.4       190.4       190.4       190.4       190.4       190.4       190.4       190.4       190.4    
        190.4       190.4       190.4       190.4       190.4       190.4       190.4       190.4       190.4       190.4    

 HEAD WILL BE SAVED ON UNIT   51 AT END OF TIME STEP    3, STRESS PERIOD    5

 DRAWDOWN WILL BE SAVED ON UNIT   52 AT END OF TIME STEP    3, STRESS PERIOD    5
1
  VOLUMETRIC BUDGET FOR ENTIRE MODEL AT END OF TIME STEP    3, STRESS PERIOD   5
  ------------------------------------------------------------------------------

     CUMULATIVE VOLUMES      L**3       RATES FOR THIS TIME STEP      L**3/T
     ------------------                 ------------------------

           IN:                                      IN:
           ---                                      ---
             STORAGE =           0.2904               STORAGE =       4.8553E-05
       CONSTANT HEAD =           0.0000         CONSTANT HEAD =           0.0000
               WELLS =           0.0000                 WELLS =           0.0000
            RECHARGE =    45563964.0000              RECHARGE =       37620.0000
    INST. IB STORAGE =           0.3880      INST. IB STORAGE =       9.4585E-07
    DELAY IB STORAGE =           1.1428      DELAY IB STORAGE =       2.2050E-03

            TOTAL IN =    45563964.0000              TOTAL IN =       37620.0039

          OUT:                                     OUT:
          ----                                     ----
             STORAGE =           0.3135               STORAGE =       7.8634E-04
       CONSTANT HEAD =    45563964.0000         CONSTANT HEAD =       37620.0000
               WELLS =           0.0000                 WELLS =           0.0000
            RECHARGE =           0.0000              RECHARGE =           0.0000
    INST. IB STORAGE =           0.4214      INST. IB STORAGE =       1.2417E-03
    DELAY IB STORAGE =           1.0374      DELAY IB STORAGE =       8.5036E-04

           TOTAL OUT =    45563964.0000             TOTAL OUT =       37620.0000

            IN - OUT =           0.0000              IN - OUT =       3.9062E-03

 PERCENT DISCREPANCY =           0.00     PERCENT DISCREPANCY =           0.00






         TIME SUMMARY AT END OF TIME STEP    3 IN STRESS PERIOD    5
                    SECONDS     MINUTES      HOURS       DAYS        YEARS
                    -----------------------------------------------------------
   TIME STEP LENGTH 4.18152E+06  69692.      1161.5      48.397     0.13250    
 STRESS PERIOD TIME 9.87236E+06 1.64539E+05  2742.3      114.26     0.31284    
         TOTAL TIME 1.04645E+08 1.74408E+06  29068.      1211.2      3.3160    
1
 
 SOLVING FOR HEAD 
     2 ITERATIONS FOR TIME STEP   4 IN STRESS PERIOD    5

 OUTPUT CONTROL FOR STRESS PERIOD    5   TIME STEP    4
    SAVE HEAD FOR ALL LAYERS
    SAVE DRAWDOWN FOR ALL LAYERS
    SAVE BUDGET
    PRINT HEAD FOR ALL LAYERS
    PRINT BUDGET
1
              HEAD IN LAYER   1 AT END OF TIME STEP   4 IN STRESS PERIOD    5
  ---------------------------------------------------------------------------

            1           2           3           4           5           6           7           8           9          10
           11          12          13          14          15          16          17          18          19          20
           21          22          23          24          25          26          27          28          29          30
           31          32          33          34          35          36          37          38          39          40
           41          42          43          44          45          46          47          48          49          50
           51          52          53          54          55          56          57          58          59          60
           61          62          63          64          65          66          67          68          69          70
           71          72          73          74          75          76          77          78          79          80
           81          82          83          84          85          86          87          88          89          90
           91          92          93          94          95          96          97          98          99         100
 ........................................................................................................................
   1    10.00       31.68       52.10       71.32       89.40       106.4       122.3       137.3       151.2       164.3    
        176.4       187.6       198.0       207.6       216.3       224.3       231.4       237.8       243.5       248.4    
        252.6       256.1       258.9       260.9       262.3       263.0       0.000       0.000       0.000       0.000    
        0.000       0.000       0.000       0.000       0.000       0.000       0.000       0.000       0.000       0.000    
        0.000       0.000       0.000       0.000       0.000       0.000       0.000       0.000       0.000       0.000    
        0.000       0.000       0.000       0.000       0.000       0.000       0.000       0.000       0.000       0.000    
        0.000       0.000       0.000       0.000       0.000       0.000       0.000       0.000       0.000       294.8    
        294.2       293.0       291.2       288.8       285.9       282.3       278.2       273.4       268.1       262.2    
        255.7       248.5       240.8       232.5       223.5       213.9       203.8       192.9       181.5       169.3    
        156.6       143.1       129.0       114.2       98.68       82.45       65.48       47.77       29.28       10.00    
1
              HEAD IN LAYER   2 AT END OF TIME STEP   4 IN STRESS PERIOD    5
  ---------------------------------------------------------------------------

            1           2           3           4           5           6           7           8           9          10
           11          12          13          14          15          16          17          18          19          20
           21          22          23          24          25          26          27          28          29          30
           31          32          33          34          35          36          37          38          39          40
           41          42          43          44          45          46          47          48          49          50
           51          52          53          54          55          56          57          58          59          60
           61          62          63          64          65          66          67          68          69          70
           71          72          73          74          75          76          77          78          79          80
           81          82          83          84          85          86          87          88          89          90
           91          92          93          94          95          96          97          98          99         100
 ........................................................................................................................
   1    187.1       187.1       187.2       187.3       187.4       187.5       187.7       187.8       188.0       188.1    
        188.3       188.5       188.7       188.8       189.0       189.2       189.3       189.5       189.6       189.7    
        189.8       189.9       190.0       190.1       190.2       190.2       190.3       190.3       190.4       190.4    
        190.4       190.5       190.5       190.5       190.6       190.6       190.7       190.7       190.7       190.8    
        190.8       190.9       190.9       190.9       191.0       191.0       191.1       191.1       191.1       191.2    
        191.2       191.3       191.3       191.4       191.4       191.4       191.5       191.5       191.6       191.6    
        191.6       191.7       191.7       191.8       191.8       191.9       191.9       192.0       192.0       192.0    
        192.1       192.1       192.1       192.0       192.0       191.9       191.8       191.7       191.6       191.5    
        191.4       191.2       191.1       190.9       190.7       190.5       190.3       190.1       189.9       189.8    
        189.6       189.4       189.2       189.1       188.9       188.8       188.7       188.6       188.5       188.5    
1
              HEAD IN LAYER   3 AT END OF TIME STEP   4 IN STRESS PERIOD    5
  ---------------------------------------------------------------------------

            1           2           3           4           5           6           7           8           9          10
           11          12          13          14          15          16          17          18          19          20
           21          22          23          24          25          26          27          28          29          30
           31          32          33          34          35          36          37          38          39          40
           41          42          43          44          45          46          47          48          49          50
           51          52          53          54          55          56          57          58          59          60
           61          62          63          64          65          66          67          68          69          70
           71          72          73          74          75          76          77          78          79          80
           81          82          83          84          85          86          87          88          89          90
           91          92          93          94          95          96          97          98          99         100
 ........................................................................................................................
   1    190.1       190.1       190.1       190.1       190.1       190.1       190.1       190.1       190.1       190.1    
        190.1       190.1       190.1       190.1       190.1       190.1       190.1       190.1       190.2       190.2    
        190.2       190.2       190.2       190.2       190.2       190.2       190.2       190.2       190.2       190.2    
        190.2       190.2       190.3       190.3       190.3       190.3       190.3       190.3       190.3       190.3    
        190.3       190.3       190.3       190.3       190.3       190.3       190.3       190.3       190.4       190.4    
        190.4       190.4       190.4       190.4       190.4       190.4       190.4       190.4       190.4       190.4    
        190.4       190.4       190.4       190.4       190.4       190.4       190.4       190.4       190.4       190.4    
        190.4       190.4       190.4       190.4       190.4       190.4       190.4       190.4       190.4       190.4    
        190.4       190.4       190.4       190.4       190.4       190.4       190.4       190.4       190.4       190.4    
        190.4       190.4       190.4       190.4       190.4       190.4       190.4       190.4       190.4       190.4    

 HEAD WILL BE SAVED ON UNIT   51 AT END OF TIME STEP    4, STRESS PERIOD    5

 DRAWDOWN WILL BE SAVED ON UNIT   52 AT END OF TIME STEP    4, STRESS PERIOD    5
1
  VOLUMETRIC BUDGET FOR ENTIRE MODEL AT END OF TIME STEP    4, STRESS PERIOD   5
  ------------------------------------------------------------------------------

     CUMULATIVE VOLUMES      L**3       RATES FOR THIS TIME STEP      L**3/T
     ------------------                 ------------------------

           IN:                                      IN:
           ---                                      ---
             STORAGE =           0.3151               STORAGE =       3.9259E-04
       CONSTANT HEAD =           0.0000         CONSTANT HEAD =           0.0000
               WELLS =           0.0000                 WELLS =           0.0000
            RECHARGE =    47930880.0000              RECHARGE =       37620.0000
    INST. IB STORAGE =           0.4207      INST. IB STORAGE =       5.1961E-04
    DELAY IB STORAGE =           1.1481      DELAY IB STORAGE =       8.4125E-05

            TOTAL IN =    47930880.0000              TOTAL IN =       37620.0000

          OUT:                                     OUT:
          ----                                     ----
             STORAGE =           0.3135               STORAGE =           0.0000
       CONSTANT HEAD =    47930880.0000         CONSTANT HEAD =       37620.0000
               WELLS =           0.0000                 WELLS =           0.0000
            RECHARGE =           0.0000              RECHARGE =           0.0000
    INST. IB STORAGE =           0.4214      INST. IB STORAGE =           0.0000
    DELAY IB STORAGE =           1.1383      DELAY IB STORAGE =       1.6036E-03

           TOTAL OUT =    47930880.0000             TOTAL OUT =       37620.0000

            IN - OUT =           0.0000              IN - OUT =           0.0000

 PERCENT DISCREPANCY =           0.00     PERCENT DISCREPANCY =           0.00






         TIME SUMMARY AT END OF TIME STEP    4 IN STRESS PERIOD    5
                    SECONDS     MINUTES      HOURS       DAYS        YEARS
                    -----------------------------------------------------------
   TIME STEP LENGTH 5.43598E+06  90600.      1510.0      62.916     0.17226    
 STRESS PERIOD TIME 1.53083E+07 2.55139E+05  4252.3      177.18     0.48509    
         TOTAL TIME 1.10080E+08 1.83467E+06  30578.      1274.1      3.4882    
1
 
 SOLVING FOR HEAD 
     1 ITERATIONS FOR TIME STEP   5 IN STRESS PERIOD    5

 MAXIMUM HEAD CHANGE FOR EACH ITERATION:

    HEAD CHANGE   HEAD CHANGE   HEAD CHANGE   HEAD CHANGE   HEAD CHANGE
  LAYER,ROW,COL LAYER,ROW,COL LAYER,ROW,COL LAYER,ROW,COL LAYER,ROW,COL
 ----------------------------------------------------------------------
    -0.7908E-04
  (  3,  1, 26)


 OUTPUT CONTROL FOR STRESS PERIOD    5   TIME STEP    5
    SAVE HEAD FOR ALL LAYERS
    SAVE DRAWDOWN FOR ALL LAYERS
    SAVE BUDGET
    PRINT HEAD FOR ALL LAYERS
    PRINT BUDGET
1
              HEAD IN LAYER   1 AT END OF TIME STEP   5 IN STRESS PERIOD    5
  ---------------------------------------------------------------------------

            1           2           3           4           5           6           7           8           9          10
           11          12          13          14          15          16          17          18          19          20
           21          22          23          24          25          26          27          28          29          30
           31          32          33          34          35          36          37          38          39          40
           41          42          43          44          45          46          47          48          49          50
           51          52          53          54          55          56          57          58          59          60
           61          62          63          64          65          66          67          68          69          70
           71          72          73          74          75          76          77          78          79          80
           81          82          83          84          85          86          87          88          89          90
           91          92          93          94          95          96          97          98          99         100
 ........................................................................................................................
   1    10.00       31.68       52.10       71.32       89.40       106.4       122.3       137.3       151.2       164.3    
        176.4       187.6       198.0       207.6       216.3       224.3       231.4       237.8       243.5       248.4    
        252.6       256.1       258.9       260.9       262.3       263.0       0.000       0.000       0.000       0.000    
        0.000       0.000       0.000       0.000       0.000       0.000       0.000       0.000       0.000       0.000    
        0.000       0.000       0.000       0.000       0.000       0.000       0.000       0.000       0.000       0.000    
        0.000       0.000       0.000       0.000       0.000       0.000       0.000       0.000       0.000       0.000    
        0.000       0.000       0.000       0.000       0.000       0.000       0.000       0.000       0.000       294.8    
        294.2       293.0       291.2       288.8       285.9       282.3       278.2       273.4       268.1       262.2    
        255.7       248.5       240.8       232.5       223.5       213.9       203.8       192.9       181.5       169.3    
        156.6       143.1       129.0       114.2       98.68       82.45       65.48       47.77       29.28       10.00    
1
              HEAD IN LAYER   2 AT END OF TIME STEP   5 IN STRESS PERIOD    5
  ---------------------------------------------------------------------------

            1           2           3           4           5           6           7           8           9          10
           11          12          13          14          15          16          17          18          19          20
           21          22          23          24          25          26          27          28          29          30
           31          32          33          34          35          36          37          38          39          40
           41          42          43          44          45          46          47          48          49          50
           51          52          53          54          55          56          57          58          59          60
           61          62          63          64          65          66          67          68          69          70
           71          72          73          74          75          76          77          78          79          80
           81          82          83          84          85          86          87          88          89          90
           91          92          93          94          95          96          97          98          99         100
 ........................................................................................................................
   1    187.1       187.1       187.2       187.3       187.4       187.5       187.7       187.8       188.0       188.1    
        188.3       188.5       188.7       188.8       189.0       189.2       189.3       189.5       189.6       189.7    
        189.8       189.9       190.0       190.1       190.2       190.2       190.3       190.3       190.4       190.4    
        190.4       190.5       190.5       190.5       190.6       190.6       190.7       190.7       190.7       190.8    
        190.8       190.9       190.9       190.9       191.0       191.0       191.1       191.1       191.1       191.2    
        191.2       191.3       191.3       191.4       191.4       191.4       191.5       191.5       191.6       191.6    
        191.6       191.7       191.7       191.8       191.8       191.9       191.9       192.0       192.0       192.0    
        192.1       192.1       192.1       192.0       192.0       191.9       191.8       191.7       191.6       191.5    
        191.4       191.2       191.1       190.9       190.7       190.5       190.3       190.1       189.9       189.8    
        189.6       189.4       189.2       189.1       188.9       188.8       188.7       188.6       188.5       188.5    
1
              HEAD IN LAYER   3 AT END OF TIME STEP   5 IN STRESS PERIOD    5
  ---------------------------------------------------------------------------

            1           2           3           4           5           6           7           8           9          10
           11          12          13          14          15          16          17          18          19          20
           21          22          23          24          25          26          27          28          29          30
           31          32          33          34          35          36          37          38          39          40
           41          42          43          44          45          46          47          48          49          50
           51          52          53          54          55          56          57          58          59          60
           61          62          63          64          65          66          67          68          69          70
           71          72          73          74          75          76          77          78          79          80
           81          82          83          84          85          86          87          88          89          90
           91          92          93          94          95          96          97          98          99         100
 ........................................................................................................................
   1    190.1       190.1       190.1       190.1       190.1       190.1       190.1       190.1       190.1       190.1    
        190.1       190.1       190.1       190.1       190.1       190.1       190.1       190.1       190.2       190.2    
        190.2       190.2       190.2       190.2       190.2       190.2       190.2       190.2       190.2       190.2    
        190.2       190.2       190.3       190.3       190.3       190.3       190.3       190.3       190.3       190.3    
        190.3       190.3       190.3       190.3       190.3       190.3       190.3       190.3       190.4       190.4    
        190.4       190.4       190.4       190.4       190.4       190.4       190.4       190.4       190.4       190.4    
        190.4       190.4       190.4       190.4       190.4       190.4       190.4       190.4       190.4       190.4    
        190.4       190.4       190.4       190.4       190.4       190.4       190.4       190.4       190.4       190.4    
        190.4       190.4       190.4       190.4       190.4       190.4       190.4       190.4       190.4       190.4    
        190.4       190.4       190.4       190.4       190.4       190.4       190.4       190.4       190.4       190.4    

 HEAD WILL BE SAVED ON UNIT   51 AT END OF TIME STEP    5, STRESS PERIOD    5

 DRAWDOWN WILL BE SAVED ON UNIT   52 AT END OF TIME STEP    5, STRESS PERIOD    5
1
  VOLUMETRIC BUDGET FOR ENTIRE MODEL AT END OF TIME STEP    5, STRESS PERIOD   5
  ------------------------------------------------------------------------------

     CUMULATIVE VOLUMES      L**3       RATES FOR THIS TIME STEP      L**3/T
     ------------------                 ------------------------

           IN:                                      IN:
           ---                                      ---
             STORAGE =           0.3251               STORAGE =       1.2202E-04
       CONSTANT HEAD =           0.0000         CONSTANT HEAD =           0.0000
               WELLS =           0.0000                 WELLS =           0.0000
            RECHARGE =    51007872.0000              RECHARGE =       37620.0000
    INST. IB STORAGE =           0.4370      INST. IB STORAGE =       1.9906E-04
    DELAY IB STORAGE =           1.1793      DELAY IB STORAGE =       3.8135E-04

            TOTAL IN =    51007872.0000              TOTAL IN =       37620.0000

          OUT:                                     OUT:
          ----                                     ----
             STORAGE =           0.3182               STORAGE =       5.7460E-05
       CONSTANT HEAD =    51007872.0000         CONSTANT HEAD =       37620.0000
               WELLS =           0.0000                 WELLS =           0.0000
            RECHARGE =           0.0000              RECHARGE =           0.0000
    INST. IB STORAGE =           0.4215      INST. IB STORAGE =       1.4925E-06
    DELAY IB STORAGE =           1.1883      DELAY IB STORAGE =       6.1182E-04

           TOTAL OUT =    51007872.0000             TOTAL OUT =       37620.0000

            IN - OUT =           0.0000              IN - OUT =           0.0000

 PERCENT DISCREPANCY =           0.00     PERCENT DISCREPANCY =           0.00






         TIME SUMMARY AT END OF TIME STEP    5 IN STRESS PERIOD    5
                    SECONDS     MINUTES      HOURS       DAYS        YEARS
                    -----------------------------------------------------------
   TIME STEP LENGTH 7.06678E+06 1.17780E+05  1963.0      81.791     0.22393    
 STRESS PERIOD TIME 2.23751E+07 3.72919E+05  6215.3      258.97     0.70902    
         TOTAL TIME 1.17147E+08 1.95245E+06  32541.      1355.9      3.7122    
1
 
 SOLVING FOR HEAD 
     2 ITERATIONS FOR TIME STEP   6 IN STRESS PERIOD    5

 MAXIMUM HEAD CHANGE FOR EACH ITERATION:

    HEAD CHANGE   HEAD CHANGE   HEAD CHANGE   HEAD CHANGE   HEAD CHANGE
  LAYER,ROW,COL LAYER,ROW,COL LAYER,ROW,COL LAYER,ROW,COL LAYER,ROW,COL
 ----------------------------------------------------------------------
     0.1383E-03    0.5890E-04
  (  3,  1,  9) (  2,  1, 42)


 OUTPUT CONTROL FOR STRESS PERIOD    5   TIME STEP    6
    SAVE HEAD FOR ALL LAYERS
    SAVE DRAWDOWN FOR ALL LAYERS
    SAVE BUDGET
    PRINT HEAD FOR ALL LAYERS
    PRINT BUDGET
1
              HEAD IN LAYER   1 AT END OF TIME STEP   6 IN STRESS PERIOD    5
  ---------------------------------------------------------------------------

            1           2           3           4           5           6           7           8           9          10
           11          12          13          14          15          16          17          18          19          20
           21          22          23          24          25          26          27          28          29          30
           31          32          33          34          35          36          37          38          39          40
           41          42          43          44          45          46          47          48          49          50
           51          52          53          54          55          56          57          58          59          60
           61          62          63          64          65          66          67          68          69          70
           71          72          73          74          75          76          77          78          79          80
           81          82          83          84          85          86          87          88          89          90
           91          92          93          94          95          96          97          98          99         100
 ........................................................................................................................
   1    10.00       31.68       52.10       71.32       89.40       106.4       122.3       137.3       151.2       164.3    
        176.4       187.6       198.0       207.6       216.3       224.3       231.4       237.8       243.5       248.4    
        252.6       256.1       258.9       260.9       262.3       263.0       0.000       0.000       0.000       0.000    
        0.000       0.000       0.000       0.000       0.000       0.000       0.000       0.000       0.000       0.000    
        0.000       0.000       0.000       0.000       0.000       0.000       0.000       0.000       0.000       0.000    
        0.000       0.000       0.000       0.000       0.000       0.000       0.000       0.000       0.000       0.000    
        0.000       0.000       0.000       0.000       0.000       0.000       0.000       0.000       0.000       294.8    
        294.2       293.0       291.2       288.8       285.9       282.3       278.2       273.4       268.1       262.2    
        255.7       248.5       240.8       232.5       223.5       213.9       203.8       192.9       181.5       169.3    
        156.6       143.1       129.0       114.2       98.68       82.45       65.48       47.77       29.28       10.00    
1
              HEAD IN LAYER   2 AT END OF TIME STEP   6 IN STRESS PERIOD    5
  ---------------------------------------------------------------------------

            1           2           3           4           5           6           7           8           9          10
           11          12          13          14          15          16          17          18          19          20
           21          22          23          24          25          26          27          28          29          30
           31          32          33          34          35          36          37          38          39          40
           41          42          43          44          45          46          47          48          49          50
           51          52          53          54          55          56          57          58          59          60
           61          62          63          64          65          66          67          68          69          70
           71          72          73          74          75          76          77          78          79          80
           81          82          83          84          85          86          87          88          89          90
           91          92          93          94          95          96          97          98          99         100
 ........................................................................................................................
   1    187.1       187.1       187.2       187.3       187.4       187.5       187.7       187.8       188.0       188.1    
        188.3       188.5       188.7       188.8       189.0       189.2       189.3       189.5       189.6       189.7    
        189.8       189.9       190.0       190.1       190.2       190.2       190.3       190.3       190.4       190.4    
        190.4       190.5       190.5       190.5       190.6       190.6       190.7       190.7       190.7       190.8    
        190.8       190.9       190.9       190.9       191.0       191.0       191.1       191.1       191.1       191.2    
        191.2       191.3       191.3       191.4       191.4       191.4       191.5       191.5       191.6       191.6    
        191.6       191.7       191.7       191.8       191.8       191.9       191.9       192.0       192.0       192.0    
        192.1       192.1       192.1       192.0       192.0       191.9       191.8       191.7       191.6       191.5    
        191.4       191.2       191.1       190.9       190.7       190.5       190.3       190.1       189.9       189.8    
        189.6       189.4       189.2       189.1       188.9       188.8       188.7       188.6       188.5       188.5    
1
              HEAD IN LAYER   3 AT END OF TIME STEP   6 IN STRESS PERIOD    5
  ---------------------------------------------------------------------------

            1           2           3           4           5           6           7           8           9          10
           11          12          13          14          15          16          17          18          19          20
           21          22          23          24          25          26          27          28          29          30
           31          32          33          34          35          36          37          38          39          40
           41          42          43          44          45          46          47          48          49          50
           51          52          53          54          55          56          57          58          59          60
           61          62          63          64          65          66          67          68          69          70
           71          72          73          74          75          76          77          78          79          80
           81          82          83          84          85          86          87          88          89          90
           91          92          93          94          95          96          97          98          99         100
 ........................................................................................................................
   1    190.1       190.1       190.1       190.1       190.1       190.1       190.1       190.1       190.1       190.1    
        190.1       190.1       190.1       190.1       190.1       190.1       190.1       190.2       190.2       190.2    
        190.2       190.2       190.2       190.2       190.2       190.2       190.2       190.2       190.2       190.2    
        190.2       190.2       190.3       190.3       190.3       190.3       190.3       190.3       190.3       190.3    
        190.3       190.3       190.3       190.3       190.3       190.3       190.3       190.3       190.4       190.4    
        190.4       190.4       190.4       190.4       190.4       190.4       190.4       190.4       190.4       190.4    
        190.4       190.4       190.4       190.4       190.4       190.4       190.4       190.4       190.4       190.4    
        190.4       190.4       190.4       190.4       190.4       190.4       190.4       190.4       190.4       190.4    
        190.4       190.4       190.4       190.4       190.4       190.4       190.4       190.4       190.4       190.4    
        190.4       190.4       190.4       190.4       190.4       190.4       190.4       190.4       190.4       190.4    

 HEAD WILL BE SAVED ON UNIT   51 AT END OF TIME STEP    6, STRESS PERIOD    5

 DRAWDOWN WILL BE SAVED ON UNIT   52 AT END OF TIME STEP    6, STRESS PERIOD    5
1
  VOLUMETRIC BUDGET FOR ENTIRE MODEL AT END OF TIME STEP    6, STRESS PERIOD   5
  ------------------------------------------------------------------------------

     CUMULATIVE VOLUMES      L**3       RATES FOR THIS TIME STEP      L**3/T
     ------------------                 ------------------------

           IN:                                      IN:
           ---                                      ---
             STORAGE =           0.3292               STORAGE =       3.8675E-05
       CONSTANT HEAD =           0.0000         CONSTANT HEAD =           0.0000
               WELLS =           0.0000                 WELLS =           0.0000
            RECHARGE =    55007960.0000              RECHARGE =       37620.0000
    INST. IB STORAGE =           0.4371      INST. IB STORAGE =       8.6103E-07
    DELAY IB STORAGE =           1.2805      DELAY IB STORAGE =       9.5147E-04

            TOTAL IN =    55007960.0000              TOTAL IN =       37620.0000

          OUT:                                     OUT:
          ----                                     ----
             STORAGE =           0.3417               STORAGE =       2.2040E-04
       CONSTANT HEAD =    55007960.0000         CONSTANT HEAD =       37620.0000
               WELLS =           0.0000                 WELLS =           0.0000
            RECHARGE =           0.0000              RECHARGE =           0.0000
    INST. IB STORAGE =           0.4541      INST. IB STORAGE =       3.0667E-04
    DELAY IB STORAGE =           1.1926      DELAY IB STORAGE =       4.0543E-05

           TOTAL OUT =    55007960.0000             TOTAL OUT =       37620.0000

            IN - OUT =           0.0000              IN - OUT =           0.0000

 PERCENT DISCREPANCY =           0.00     PERCENT DISCREPANCY =           0.00






         TIME SUMMARY AT END OF TIME STEP    6 IN STRESS PERIOD    5
                    SECONDS     MINUTES      HOURS       DAYS        YEARS
                    -----------------------------------------------------------
   TIME STEP LENGTH 9.18681E+06 1.53113E+05  2551.9      106.33     0.29111    
 STRESS PERIOD TIME 3.15619E+07 5.26032E+05  8767.2      365.30      1.0001    
         TOTAL TIME 1.26334E+08 2.10557E+06  35093.      1462.2      4.0033    
1

                               VOLUMETRIC BUDGET FOR SYSTEMS OF DELAY INTERBEDS
                                          AT END OF TIME STEP  6 IN STRESS PERIOD  5

          |   C U M U L A T I V E   V O L U M E S   L**3           | R A T E S   F O R  T H I S  T I M E  S T E P   L**3/T  |
   SYSTEM |    CHANGE IN     BOUNDARY                    PERCENT   |    CHANGE IN     BOUNDARY                    PERCENT   |
   NUMBER |     STORAGE        FLOW           SUM      DISCREPANCY |     STORAGE        FLOW           SUM      DISCREPANCY |
  --------|--------------------------------------------------------|--------------------------------------------------------|
      1    0.25827E-01   -0.25827E-01    0.14901E-07    0.57696E-04    0.27954E-03   -0.27954E-03   -0.87311E-10   -0.31234E-04
      2    0.62026E-01   -0.62026E-01   -0.52154E-07   -0.84084E-04    0.63139E-03   -0.63139E-03    0.17462E-09    0.27657E-04
  --------|--------------------------------------------------------|--------------------------------------------------------|
 TOTALS:    0.87853E-01   -0.87853E-01   -0.37253E-07   -0.42404E-04    0.91093E-03   -0.91093E-03    0.11642E-09    0.12780E-04
1
                            STRESS PERIOD NO.    6, LENGTH =   365.3000    
                            -----------------------------------------------

                              NUMBER OF TIME STEPS =     6

                               MULTIPLIER FOR DELT =     1.300

                            INITIAL TIME STEP SIZE =   28.63744    

 WELL NO.  LAYER   ROW   COL   STRESS RATE         
 --------------------------------------------------
      1      1      1     50     -0.1532E+06

      1 WELL 

 REUSING RECH FROM LAST STRESS PERIOD
 
 SOLVING FOR HEAD 

     2 ITERATIONS FOR TIME STEP   1 IN STRESS PERIOD    6

 OUTPUT CONTROL FOR STRESS PERIOD    6   TIME STEP    1
    SAVE HEAD FOR ALL LAYERS
    SAVE DRAWDOWN FOR ALL LAYERS
    SAVE BUDGET
    PRINT HEAD FOR ALL LAYERS
    PRINT BUDGET
1
              HEAD IN LAYER   1 AT END OF TIME STEP   1 IN STRESS PERIOD    6
  ---------------------------------------------------------------------------

            1           2           3           4           5           6           7           8           9          10
           11          12          13          14          15          16          17          18          19          20
           21          22          23          24          25          26          27          28          29          30
           31          32          33          34          35          36          37          38          39          40
           41          42          43          44          45          46          47          48          49          50
           51          52          53          54          55          56          57          58          59          60
           61          62          63          64          65          66          67          68          69          70
           71          72          73          74          75          76          77          78          79          80
           81          82          83          84          85          86          87          88          89          90
           91          92          93          94          95          96          97          98          99         100
 ........................................................................................................................
   1    10.00       31.68       52.10       71.32       89.40       106.4       122.3       137.3       151.2       164.3    
        176.4       187.6       198.0       207.6       216.3       224.3       231.4       237.8       243.5       248.4    
        252.6       256.1       258.9       260.9       262.3       263.0       0.000       0.000       0.000       0.000    
        0.000       0.000       0.000       0.000       0.000       0.000       0.000       0.000       0.000       0.000    
        0.000       0.000       0.000       0.000       0.000       0.000       0.000       0.000       0.000       0.000    
        0.000       0.000       0.000       0.000       0.000       0.000       0.000       0.000       0.000       0.000    
        0.000       0.000       0.000       0.000       0.000       0.000       0.000       0.000       0.000       294.8    
        294.2       293.0       291.2       288.8       285.9       282.3       278.2       273.4       268.1       262.2    
        255.7       248.5       240.8       232.5       223.5       213.9       203.8       192.9       181.5       169.3    
        156.6       143.1       129.0       114.2       98.68       82.45       65.48       47.77       29.28       10.00    
1
              HEAD IN LAYER   2 AT END OF TIME STEP   1 IN STRESS PERIOD    6
  ---------------------------------------------------------------------------

            1           2           3           4           5           6           7           8           9          10
           11          12          13          14          15          16          17          18          19          20
           21          22          23          24          25          26          27          28          29          30
           31          32          33          34          35          36          37          38          39          40
           41          42          43          44          45          46          47          48          49          50
           51          52          53          54          55          56          57          58          59          60
           61          62          63          64          65          66          67          68          69          70
           71          72          73          74          75          76          77          78          79          80
           81          82          83          84          85          86          87          88          89          90
           91          92          93          94          95          96          97          98          99         100
 ........................................................................................................................
   1    187.1       187.1       187.2       187.3       187.4       187.5       187.7       187.8       188.0       188.1    
        188.3       188.5       188.7       188.8       189.0       189.2       189.3       189.5       189.6       189.7    
        189.8       189.9       190.0       190.1       190.2       190.2       190.3       190.3       190.4       190.4    
        190.4       190.5       190.5       190.5       190.6       190.6       190.7       190.7       190.7       190.8    
        190.8       190.9       190.9       190.9       191.0       191.0       191.1       191.1       191.1       191.2    
        191.2       191.3       191.3       191.4       191.4       191.4       191.5       191.5       191.6       191.6    
        191.6       191.7       191.7       191.8       191.8       191.9       191.9       192.0       192.0       192.0    
        192.1       192.1       192.1       192.0       192.0       191.9       191.8       191.7       191.6       191.5    
        191.4       191.2       191.1       190.9       190.7       190.5       190.3       190.1       189.9       189.8    
        189.6       189.4       189.2       189.1       188.9       188.8       188.7       188.6       188.5       188.5    
1
              HEAD IN LAYER   3 AT END OF TIME STEP   1 IN STRESS PERIOD    6
  ---------------------------------------------------------------------------

            1           2           3           4           5           6           7           8           9          10
           11          12          13          14          15          16          17          18          19          20
           21          22          23          24          25          26          27          28          29          30
           31          32          33          34          35          36          37          38          39          40
           41          42          43          44          45          46          47          48          49          50
           51          52          53          54          55          56          57          58          59          60
           61          62          63          64          65          66          67          68          69          70
           71          72          73          74          75          76          77          78          79          80
           81          82          83          84          85          86          87          88          89          90
           91          92          93          94          95          96          97          98          99         100
 ........................................................................................................................
   1    190.1       190.1       190.1       190.1       190.1       190.1       190.1       190.1       190.1       190.1    
        190.1       190.1       190.1       190.1       190.1       190.1       190.1       190.1       190.2       190.2    
        190.2       190.2       190.2       190.2       190.2       190.2       190.2       190.2       190.2       190.2    
        190.2       190.2       190.3       190.3       190.3       190.3       190.3       190.3       190.3       190.3    
        190.3       190.3       190.3       190.3       190.3       190.3       190.3       190.3       190.4       190.4    
        190.4       190.4       190.4       190.4       190.4       190.4       190.4       190.4       190.4       190.4    
        190.4       190.4       190.4       190.4       190.4       190.4       190.4       190.4       190.4       190.4    
        190.4       190.4       190.4       190.4       190.4       190.4       190.4       190.4       190.4       190.4    
        190.4       190.4       190.4       190.4       190.4       190.4       190.4       190.4       190.4       190.4    
        190.4       190.4       190.4       190.4       190.4       190.4       190.4       190.4       190.4       190.4    

 HEAD WILL BE SAVED ON UNIT   51 AT END OF TIME STEP    1, STRESS PERIOD    6

 DRAWDOWN WILL BE SAVED ON UNIT   52 AT END OF TIME STEP    1, STRESS PERIOD    6
1
  VOLUMETRIC BUDGET FOR ENTIRE MODEL AT END OF TIME STEP    1, STRESS PERIOD   6
  ------------------------------------------------------------------------------

     CUMULATIVE VOLUMES      L**3       RATES FOR THIS TIME STEP      L**3/T
     ------------------                 ------------------------

           IN:                                      IN:
           ---                                      ---
             STORAGE =           0.3687               STORAGE =       1.3802E-03
       CONSTANT HEAD =           0.0000         CONSTANT HEAD =           0.0000
               WELLS =           0.0000                 WELLS =           0.0000
            RECHARGE =    56085300.0000              RECHARGE =       37620.0000
    INST. IB STORAGE =           0.4991      INST. IB STORAGE =       2.1659E-03
    DELAY IB STORAGE =           1.2904      DELAY IB STORAGE =       3.4594E-04

            TOTAL IN =    56085300.0000              TOTAL IN =       37620.0039

          OUT:                                     OUT:
          ----                                     ----
             STORAGE =           0.3420               STORAGE =       1.0257E-05
       CONSTANT HEAD =    56085300.0000         CONSTANT HEAD =       37620.0000
               WELLS =           0.0000                 WELLS =           0.0000
            RECHARGE =           0.0000              RECHARGE =           0.0000
    INST. IB STORAGE =           0.4541      INST. IB STORAGE =       2.6641E-07
    DELAY IB STORAGE =           1.3012      DELAY IB STORAGE =       3.7891E-03

           TOTAL OUT =    56085300.0000             TOTAL OUT =       37620.0039

            IN - OUT =           0.0000              IN - OUT =           0.0000

 PERCENT DISCREPANCY =           0.00     PERCENT DISCREPANCY =           0.00






         TIME SUMMARY AT END OF TIME STEP    1 IN STRESS PERIOD    6
                    SECONDS     MINUTES      HOURS       DAYS        YEARS
                    -----------------------------------------------------------
   TIME STEP LENGTH 2.47427E+06  41238.      687.30      28.637     7.84050E-02
 STRESS PERIOD TIME 2.47427E+06  41238.      687.30      28.637     7.84050E-02
         TOTAL TIME 1.28808E+08 2.14681E+06  35780.      1490.8      4.0817    
1
 
 SOLVING FOR HEAD 
     2 ITERATIONS FOR TIME STEP   2 IN STRESS PERIOD    6

 OUTPUT CONTROL FOR STRESS PERIOD    6   TIME STEP    2
    SAVE HEAD FOR ALL LAYERS
    SAVE DRAWDOWN FOR ALL LAYERS
    SAVE BUDGET
    PRINT HEAD FOR ALL LAYERS
    PRINT BUDGET
1
              HEAD IN LAYER   1 AT END OF TIME STEP   2 IN STRESS PERIOD    6
  ---------------------------------------------------------------------------

            1           2           3           4           5           6           7           8           9          10
           11          12          13          14          15          16          17          18          19          20
           21          22          23          24          25          26          27          28          29          30
           31          32          33          34          35          36          37          38          39          40
           41          42          43          44          45          46          47          48          49          50
           51          52          53          54          55          56          57          58          59          60
           61          62          63          64          65          66          67          68          69          70
           71          72          73          74          75          76          77          78          79          80
           81          82          83          84          85          86          87          88          89          90
           91          92          93          94          95          96          97          98          99         100
 ........................................................................................................................
   1    10.00       31.68       52.10       71.32       89.40       106.4       122.3       137.3       151.2       164.3    
        176.4       187.6       198.0       207.6       216.3       224.3       231.4       237.8       243.5       248.4    
        252.6       256.1       258.9       260.9       262.3       263.0       0.000       0.000       0.000       0.000    
        0.000       0.000       0.000       0.000       0.000       0.000       0.000       0.000       0.000       0.000    
        0.000       0.000       0.000       0.000       0.000       0.000       0.000       0.000       0.000       0.000    
        0.000       0.000       0.000       0.000       0.000       0.000       0.000       0.000       0.000       0.000    
        0.000       0.000       0.000       0.000       0.000       0.000       0.000       0.000       0.000       294.8    
        294.2       293.0       291.2       288.8       285.9       282.3       278.2       273.4       268.1       262.2    
        255.7       248.5       240.8       232.5       223.5       213.9       203.8       192.9       181.5       169.3    
        156.6       143.1       129.0       114.2       98.68       82.45       65.48       47.77       29.28       10.00    
1
              HEAD IN LAYER   2 AT END OF TIME STEP   2 IN STRESS PERIOD    6
  ---------------------------------------------------------------------------

            1           2           3           4           5           6           7           8           9          10
           11          12          13          14          15          16          17          18          19          20
           21          22          23          24          25          26          27          28          29          30
           31          32          33          34          35          36          37          38          39          40
           41          42          43          44          45          46          47          48          49          50
           51          52          53          54          55          56          57          58          59          60
           61          62          63          64          65          66          67          68          69          70
           71          72          73          74          75          76          77          78          79          80
           81          82          83          84          85          86          87          88          89          90
           91          92          93          94          95          96          97          98          99         100
 ........................................................................................................................
   1    187.1       187.1       187.2       187.3       187.4       187.5       187.7       187.8       188.0       188.1    
        188.3       188.5       188.7       188.8       189.0       189.2       189.3       189.5       189.6       189.7    
        189.8       189.9       190.0       190.1       190.2       190.2       190.3       190.3       190.4       190.4    
        190.4       190.5       190.5       190.5       190.6       190.6       190.7       190.7       190.7       190.8    
        190.8       190.9       190.9       190.9       191.0       191.0       191.1       191.1       191.1       191.2    
        191.2       191.3       191.3       191.4       191.4       191.4       191.5       191.5       191.6       191.6    
        191.6       191.7       191.7       191.8       191.8       191.9       191.9       192.0       192.0       192.0    
        192.1       192.1       192.1       192.0       192.0       191.9       191.8       191.7       191.6       191.5    
        191.4       191.2       191.1       190.9       190.7       190.5       190.3       190.1       189.9       189.8    
        189.6       189.4       189.2       189.1       188.9       188.8       188.7       188.6       188.5       188.5    
1
              HEAD IN LAYER   3 AT END OF TIME STEP   2 IN STRESS PERIOD    6
  ---------------------------------------------------------------------------

            1           2           3           4           5           6           7           8           9          10
           11          12          13          14          15          16          17          18          19          20
           21          22          23          24          25          26          27          28          29          30
           31          32          33          34          35          36          37          38          39          40
           41          42          43          44          45          46          47          48          49          50
           51          52          53          54          55          56          57          58          59          60
           61          62          63          64          65          66          67          68          69          70
           71          72          73          74          75          76          77          78          79          80
           81          82          83          84          85          86          87          88          89          90
           91          92          93          94          95          96          97          98          99         100
 ........................................................................................................................
   1    190.1       190.1       190.1       190.1       190.1       190.1       190.1       190.1       190.1       190.1    
        190.1       190.1       190.1       190.1       190.1       190.1       190.1       190.1       190.2       190.2    
        190.2       190.2       190.2       190.2       190.2       190.2       190.2       190.2       190.2       190.2    
        190.2       190.2       190.3       190.3       190.3       190.3       190.3       190.3       190.3       190.3    
        190.3       190.3       190.3       190.3       190.3       190.3       190.3       190.3       190.4       190.4    
        190.4       190.4       190.4       190.4       190.4       190.4       190.4       190.4       190.4       190.4    
        190.4       190.4       190.4       190.4       190.4       190.4       190.4       190.4       190.4       190.4    
        190.4       190.4       190.4       190.4       190.4       190.4       190.4       190.4       190.4       190.4    
        190.4       190.4       190.4       190.4       190.4       190.4       190.4       190.4       190.4       190.4    
        190.4       190.4       190.4       190.4       190.4       190.4       190.4       190.4       190.4       190.4    

 HEAD WILL BE SAVED ON UNIT   51 AT END OF TIME STEP    2, STRESS PERIOD    6

 DRAWDOWN WILL BE SAVED ON UNIT   52 AT END OF TIME STEP    2, STRESS PERIOD    6
1
  VOLUMETRIC BUDGET FOR ENTIRE MODEL AT END OF TIME STEP    2, STRESS PERIOD   6
  ------------------------------------------------------------------------------

     CUMULATIVE VOLUMES      L**3       RATES FOR THIS TIME STEP      L**3/T
     ------------------                 ------------------------

           IN:                                      IN:
           ---                                      ---
             STORAGE =           0.3729               STORAGE =       1.1206E-04
       CONSTANT HEAD =           0.0000         CONSTANT HEAD =           0.0000
               WELLS =           0.0000                 WELLS =           0.0000
            RECHARGE =    57485844.0000              RECHARGE =       37620.0000
    INST. IB STORAGE =           0.5014      INST. IB STORAGE =       6.0865E-05
    DELAY IB STORAGE =           1.3417      DELAY IB STORAGE =       1.3786E-03

            TOTAL IN =    57485844.0000              TOTAL IN =       37620.0000

          OUT:                                     OUT:
          ----                                     ----
             STORAGE =           0.3585               STORAGE =       4.4253E-04
       CONSTANT HEAD =    57485844.0000         CONSTANT HEAD =       37620.0000
               WELLS =           0.0000                 WELLS =           0.0000
            RECHARGE =           0.0000              RECHARGE =           0.0000
    INST. IB STORAGE =           0.4716      INST. IB STORAGE =       4.7135E-04
    DELAY IB STORAGE =           1.3056      DELAY IB STORAGE =       1.1904E-04

           TOTAL OUT =    57485844.0000             TOTAL OUT =       37620.0000

            IN - OUT =           0.0000              IN - OUT =           0.0000

 PERCENT DISCREPANCY =           0.00     PERCENT DISCREPANCY =           0.00






         TIME SUMMARY AT END OF TIME STEP    2 IN STRESS PERIOD    6
                    SECONDS     MINUTES      HOURS       DAYS        YEARS
                    -----------------------------------------------------------
   TIME STEP LENGTH 3.21656E+06  53609.      893.49      37.229     0.10193    
 STRESS PERIOD TIME 5.69083E+06  94847.      1580.8      65.866     0.18033    
         TOTAL TIME 1.32025E+08 2.20042E+06  36674.      1528.1      4.1836    
1
 
 SOLVING FOR HEAD 
     2 ITERATIONS FOR TIME STEP   3 IN STRESS PERIOD    6

 OUTPUT CONTROL FOR STRESS PERIOD    6   TIME STEP    3
    SAVE HEAD FOR ALL LAYERS
    SAVE DRAWDOWN FOR ALL LAYERS
    SAVE BUDGET
    PRINT HEAD FOR ALL LAYERS
    PRINT BUDGET
1
              HEAD IN LAYER   1 AT END OF TIME STEP   3 IN STRESS PERIOD    6
  ---------------------------------------------------------------------------

            1           2           3           4           5           6           7           8           9          10
           11          12          13          14          15          16          17          18          19          20
           21          22          23          24          25          26          27          28          29          30
           31          32          33          34          35          36          37          38          39          40
           41          42          43          44          45          46          47          48          49          50
           51          52          53          54          55          56          57          58          59          60
           61          62          63          64          65          66          67          68          69          70
           71          72          73          74          75          76          77          78          79          80
           81          82          83          84          85          86          87          88          89          90
           91          92          93          94          95          96          97          98          99         100
 ........................................................................................................................
   1    10.00       31.68       52.10       71.32       89.40       106.4       122.3       137.3       151.2       164.3    
        176.4       187.6       198.0       207.6       216.3       224.3       231.4       237.8       243.5       248.4    
        252.6       256.1       258.9       260.9       262.3       263.0       0.000       0.000       0.000       0.000    
        0.000       0.000       0.000       0.000       0.000       0.000       0.000       0.000       0.000       0.000    
        0.000       0.000       0.000       0.000       0.000       0.000       0.000       0.000       0.000       0.000    
        0.000       0.000       0.000       0.000       0.000       0.000       0.000       0.000       0.000       0.000    
        0.000       0.000       0.000       0.000       0.000       0.000       0.000       0.000       0.000       294.8    
        294.2       293.0       291.2       288.8       285.9       282.3       278.2       273.4       268.1       262.2    
        255.7       248.5       240.8       232.5       223.5       213.9       203.8       192.9       181.5       169.3    
        156.6       143.1       129.0       114.2       98.68       82.45       65.48       47.77       29.28       10.00    
1
              HEAD IN LAYER   2 AT END OF TIME STEP   3 IN STRESS PERIOD    6
  ---------------------------------------------------------------------------

            1           2           3           4           5           6           7           8           9          10
           11          12          13          14          15          16          17          18          19          20
           21          22          23          24          25          26          27          28          29          30
           31          32          33          34          35          36          37          38          39          40
           41          42          43          44          45          46          47          48          49          50
           51          52          53          54          55          56          57          58          59          60
           61          62          63          64          65          66          67          68          69          70
           71          72          73          74          75          76          77          78          79          80
           81          82          83          84          85          86          87          88          89          90
           91          92          93          94          95          96          97          98          99         100
 ........................................................................................................................
   1    187.1       187.1       187.2       187.3       187.4       187.5       187.7       187.8       188.0       188.1    
        188.3       188.5       188.7       188.8       189.0       189.2       189.3       189.5       189.6       189.7    
        189.8       189.9       190.0       190.1       190.2       190.2       190.3       190.3       190.4       190.4    
        190.4       190.5       190.5       190.5       190.6       190.6       190.7       190.7       190.7       190.8    
        190.8       190.9       190.9       190.9       191.0       191.0       191.1       191.1       191.1       191.2    
        191.2       191.3       191.3       191.4       191.4       191.4       191.5       191.5       191.6       191.6    
        191.6       191.7       191.7       191.8       191.8       191.9       191.9       192.0       192.0       192.0    
        192.1       192.1       192.1       192.0       192.0       191.9       191.8       191.7       191.6       191.5    
        191.4       191.2       191.1       190.9       190.7       190.5       190.3       190.1       189.9       189.8    
        189.6       189.4       189.2       189.1       188.9       188.8       188.7       188.6       188.5       188.5    
1
              HEAD IN LAYER   3 AT END OF TIME STEP   3 IN STRESS PERIOD    6
  ---------------------------------------------------------------------------

            1           2           3           4           5           6           7           8           9          10
           11          12          13          14          15          16          17          18          19          20
           21          22          23          24          25          26          27          28          29          30
           31          32          33          34          35          36          37          38          39          40
           41          42          43          44          45          46          47          48          49          50
           51          52          53          54          55          56          57          58          59          60
           61          62          63          64          65          66          67          68          69          70
           71          72          73          74          75          76          77          78          79          80
           81          82          83          84          85          86          87          88          89          90
           91          92          93          94          95          96          97          98          99         100
 ........................................................................................................................
   1    190.1       190.1       190.1       190.1       190.1       190.1       190.1       190.1       190.1       190.1    
        190.1       190.1       190.1       190.1       190.1       190.1       190.1       190.2       190.2       190.2    
        190.2       190.2       190.2       190.2       190.2       190.2       190.2       190.2       190.2       190.2    
        190.2       190.2       190.3       190.3       190.3       190.3       190.3       190.3       190.3       190.3    
        190.3       190.3       190.3       190.3       190.3       190.3       190.3       190.3       190.4       190.4    
        190.4       190.4       190.4       190.4       190.4       190.4       190.4       190.4       190.4       190.4    
        190.4       190.4       190.4       190.4       190.4       190.4       190.4       190.4       190.4       190.4    
        190.4       190.4       190.4       190.4       190.4       190.4       190.4       190.4       190.4       190.4    
        190.4       190.4       190.4       190.4       190.4       190.4       190.4       190.4       190.4       190.4    
        190.4       190.4       190.4       190.4       190.4       190.4       190.4       190.4       190.4       190.4    

 HEAD WILL BE SAVED ON UNIT   51 AT END OF TIME STEP    3, STRESS PERIOD    6

 DRAWDOWN WILL BE SAVED ON UNIT   52 AT END OF TIME STEP    3, STRESS PERIOD    6
1
  VOLUMETRIC BUDGET FOR ENTIRE MODEL AT END OF TIME STEP    3, STRESS PERIOD   6
  ------------------------------------------------------------------------------

     CUMULATIVE VOLUMES      L**3       RATES FOR THIS TIME STEP      L**3/T
     ------------------                 ------------------------

           IN:                                      IN:
           ---                                      ---
             STORAGE =           0.3752               STORAGE =       4.8553E-05
       CONSTANT HEAD =           0.0000         CONSTANT HEAD =           0.0000
               WELLS =           0.0000                 WELLS =           0.0000
            RECHARGE =    59306548.0000              RECHARGE =       37620.0000
    INST. IB STORAGE =           0.5014      INST. IB STORAGE =       9.4585E-07
    DELAY IB STORAGE =           1.4493      DELAY IB STORAGE =       2.2234E-03

            TOTAL IN =    59306548.0000              TOTAL IN =       37620.0039

          OUT:                                     OUT:
          ----                                     ----
             STORAGE =           0.3958               STORAGE =       7.7249E-04
       CONSTANT HEAD =    59306548.0000         CONSTANT HEAD =       37620.0000
               WELLS =           0.0000                 WELLS =           0.0000
            RECHARGE =           0.0000              RECHARGE =           0.0000
    INST. IB STORAGE =           0.5325      INST. IB STORAGE =       1.2572E-03
    DELAY IB STORAGE =           1.3453      DELAY IB STORAGE =       8.2107E-04

           TOTAL OUT =    59306548.0000             TOTAL OUT =       37620.0000

            IN - OUT =           0.0000              IN - OUT =       3.9062E-03

 PERCENT DISCREPANCY =           0.00     PERCENT DISCREPANCY =           0.00






         TIME SUMMARY AT END OF TIME STEP    3 IN STRESS PERIOD    6
                    SECONDS     MINUTES      HOURS       DAYS        YEARS
                    -----------------------------------------------------------
   TIME STEP LENGTH 4.18152E+06  69692.      1161.5      48.397     0.13250    
 STRESS PERIOD TIME 9.87236E+06 1.64539E+05  2742.3      114.26     0.31284    
         TOTAL TIME 1.36206E+08 2.27011E+06  37835.      1576.5      4.3161    
1
 
 SOLVING FOR HEAD 
     2 ITERATIONS FOR TIME STEP   4 IN STRESS PERIOD    6

 OUTPUT CONTROL FOR STRESS PERIOD    6   TIME STEP    4
    SAVE HEAD FOR ALL LAYERS
    SAVE DRAWDOWN FOR ALL LAYERS
    SAVE BUDGET
    PRINT HEAD FOR ALL LAYERS
    PRINT BUDGET
1
              HEAD IN LAYER   1 AT END OF TIME STEP   4 IN STRESS PERIOD    6
  ---------------------------------------------------------------------------

            1           2           3           4           5           6           7           8           9          10
           11          12          13          14          15          16          17          18          19          20
           21          22          23          24          25          26          27          28          29          30
           31          32          33          34          35          36          37          38          39          40
           41          42          43          44          45          46          47          48          49          50
           51          52          53          54          55          56          57          58          59          60
           61          62          63          64          65          66          67          68          69          70
           71          72          73          74          75          76          77          78          79          80
           81          82          83          84          85          86          87          88          89          90
           91          92          93          94          95          96          97          98          99         100
 ........................................................................................................................
   1    10.00       31.68       52.10       71.32       89.40       106.4       122.3       137.3       151.2       164.3    
        176.4       187.6       198.0       207.6       216.3       224.3       231.4       237.8       243.5       248.4    
        252.6       256.1       258.9       260.9       262.3       263.0       0.000       0.000       0.000       0.000    
        0.000       0.000       0.000       0.000       0.000       0.000       0.000       0.000       0.000       0.000    
        0.000       0.000       0.000       0.000       0.000       0.000       0.000       0.000       0.000       0.000    
        0.000       0.000       0.000       0.000       0.000       0.000       0.000       0.000       0.000       0.000    
        0.000       0.000       0.000       0.000       0.000       0.000       0.000       0.000       0.000       294.8    
        294.2       293.0       291.2       288.8       285.9       282.3       278.2       273.4       268.1       262.2    
        255.7       248.5       240.8       232.5       223.5       213.9       203.8       192.9       181.5       169.3    
        156.6       143.1       129.0       114.2       98.68       82.45       65.48       47.77       29.28       10.00    
1
              HEAD IN LAYER   2 AT END OF TIME STEP   4 IN STRESS PERIOD    6
  ---------------------------------------------------------------------------

            1           2           3           4           5           6           7           8           9          10
           11          12          13          14          15          16          17          18          19          20
           21          22          23          24          25          26          27          28          29          30
           31          32          33          34          35          36          37          38          39          40
           41          42          43          44          45          46          47          48          49          50
           51          52          53          54          55          56          57          58          59          60
           61          62          63          64          65          66          67          68          69          70
           71          72          73          74          75          76          77          78          79          80
           81          82          83          84          85          86          87          88          89          90
           91          92          93          94          95          96          97          98          99         100
 ........................................................................................................................
   1    187.1       187.1       187.2       187.3       187.4       187.5       187.7       187.8       188.0       188.1    
        188.3       188.5       188.7       188.8       189.0       189.2       189.3       189.5       189.6       189.7    
        189.8       189.9       190.0       190.1       190.2       190.2       190.3       190.3       190.4       190.4    
        190.4       190.5       190.5       190.5       190.6       190.6       190.7       190.7       190.7       190.8    
        190.8       190.9       190.9       190.9       191.0       191.0       191.1       191.1       191.1       191.2    
        191.2       191.3       191.3       191.4       191.4       191.4       191.5       191.5       191.6       191.6    
        191.6       191.7       191.7       191.8       191.8       191.9       191.9       192.0       192.0       192.0    
        192.1       192.1       192.1       192.0       192.0       191.9       191.8       191.7       191.6       191.5    
        191.4       191.2       191.1       190.9       190.7       190.5       190.3       190.1       189.9       189.8    
        189.6       189.4       189.2       189.1       188.9       188.8       188.7       188.6       188.5       188.5    
1
              HEAD IN LAYER   3 AT END OF TIME STEP   4 IN STRESS PERIOD    6
  ---------------------------------------------------------------------------

            1           2           3           4           5           6           7           8           9          10
           11          12          13          14          15          16          17          18          19          20
           21          22          23          24          25          26          27          28          29          30
           31          32          33          34          35          36          37          38          39          40
           41          42          43          44          45          46          47          48          49          50
           51          52          53          54          55          56          57          58          59          60
           61          62          63          64          65          66          67          68          69          70
           71          72          73          74          75          76          77          78          79          80
           81          82          83          84          85          86          87          88          89          90
           91          92          93          94          95          96          97          98          99         100
 ........................................................................................................................
   1    190.1       190.1       190.1       190.1       190.1       190.1       190.1       190.1       190.1       190.1    
        190.1       190.1       190.1       190.1       190.1       190.1       190.1       190.1       190.2       190.2    
        190.2       190.2       190.2       190.2       190.2       190.2       190.2       190.2       190.2       190.2    
        190.2       190.2       190.3       190.3       190.3       190.3       190.3       190.3       190.3       190.3    
        190.3       190.3       190.3       190.3       190.3       190.3       190.3       190.3       190.4       190.4    
        190.4       190.4       190.4       190.4       190.4       190.4       190.4       190.4       190.4       190.4    
        190.4       190.4       190.4       190.4       190.4       190.4       190.4       190.4       190.4       190.4    
        190.4       190.4       190.4       190.4       190.4       190.4       190.4       190.4       190.4       190.4    
        190.4       190.4       190.4       190.4       190.4       190.4       190.4       190.4       190.4       190.4    
        190.4       190.4       190.4       190.4       190.4       190.4       190.4       190.4       190.4       190.4    

 HEAD WILL BE SAVED ON UNIT   51 AT END OF TIME STEP    4, STRESS PERIOD    6

 DRAWDOWN WILL BE SAVED ON UNIT   52 AT END OF TIME STEP    4, STRESS PERIOD    6
1
  VOLUMETRIC BUDGET FOR ENTIRE MODEL AT END OF TIME STEP    4, STRESS PERIOD   6
  ------------------------------------------------------------------------------

     CUMULATIVE VOLUMES      L**3       RATES FOR THIS TIME STEP      L**3/T
     ------------------                 ------------------------

           IN:                                      IN:
           ---                                      ---
             STORAGE =           0.3977               STORAGE =       3.5779E-04
       CONSTANT HEAD =           0.0000         CONSTANT HEAD =           0.0000
               WELLS =           0.0000                 WELLS =           0.0000
            RECHARGE =    61673464.0000              RECHARGE =       37620.0000
    INST. IB STORAGE =           0.5325      INST. IB STORAGE =       4.9390E-04
    DELAY IB STORAGE =           1.4549      DELAY IB STORAGE =       8.8289E-05

            TOTAL IN =    61673464.0000              TOTAL IN =       37620.0000

          OUT:                                     OUT:
          ----                                     ----
             STORAGE =           0.3958               STORAGE =           0.0000
       CONSTANT HEAD =    61673464.0000         CONSTANT HEAD =       37620.0000
               WELLS =           0.0000                 WELLS =           0.0000
            RECHARGE =           0.0000              RECHARGE =           0.0000
    INST. IB STORAGE =           0.5325      INST. IB STORAGE =           0.0000
    DELAY IB STORAGE =           1.4406      DELAY IB STORAGE =       1.5150E-03

           TOTAL OUT =    61673464.0000             TOTAL OUT =       37620.0000

            IN - OUT =           0.0000              IN - OUT =           0.0000

 PERCENT DISCREPANCY =           0.00     PERCENT DISCREPANCY =           0.00






         TIME SUMMARY AT END OF TIME STEP    4 IN STRESS PERIOD    6
                    SECONDS     MINUTES      HOURS       DAYS        YEARS
                    -----------------------------------------------------------
   TIME STEP LENGTH 5.43598E+06  90600.      1510.0      62.916     0.17226    
 STRESS PERIOD TIME 1.53083E+07 2.55139E+05  4252.3      177.18     0.48509    
         TOTAL TIME 1.41642E+08 2.36071E+06  39345.      1639.4      4.4884    
1
 
 SOLVING FOR HEAD 
     1 ITERATIONS FOR TIME STEP   5 IN STRESS PERIOD    6

 MAXIMUM HEAD CHANGE FOR EACH ITERATION:

    HEAD CHANGE   HEAD CHANGE   HEAD CHANGE   HEAD CHANGE   HEAD CHANGE
  LAYER,ROW,COL LAYER,ROW,COL LAYER,ROW,COL LAYER,ROW,COL LAYER,ROW,COL
 ----------------------------------------------------------------------
    -0.8416E-04
  (  3,  1, 26)


 OUTPUT CONTROL FOR STRESS PERIOD    6   TIME STEP    5
    SAVE HEAD FOR ALL LAYERS
    SAVE DRAWDOWN FOR ALL LAYERS
    SAVE BUDGET
    PRINT HEAD FOR ALL LAYERS
    PRINT BUDGET
1
              HEAD IN LAYER   1 AT END OF TIME STEP   5 IN STRESS PERIOD    6
  ---------------------------------------------------------------------------

            1           2           3           4           5           6           7           8           9          10
           11          12          13          14          15          16          17          18          19          20
           21          22          23          24          25          26          27          28          29          30
           31          32          33          34          35          36          37          38          39          40
           41          42          43          44          45          46          47          48          49          50
           51          52          53          54          55          56          57          58          59          60
           61          62          63          64          65          66          67          68          69          70
           71          72          73          74          75          76          77          78          79          80
           81          82          83          84          85          86          87          88          89          90
           91          92          93          94          95          96          97          98          99         100
 ........................................................................................................................
   1    10.00       31.68       52.10       71.32       89.40       106.4       122.3       137.3       151.2       164.3    
        176.4       187.6       198.0       207.6       216.3       224.3       231.4       237.8       243.5       248.4    
        252.6       256.1       258.9       260.9       262.3       263.0       0.000       0.000       0.000       0.000    
        0.000       0.000       0.000       0.000       0.000       0.000       0.000       0.000       0.000       0.000    
        0.000       0.000       0.000       0.000       0.000       0.000       0.000       0.000       0.000       0.000    
        0.000       0.000       0.000       0.000       0.000       0.000       0.000       0.000       0.000       0.000    
        0.000       0.000       0.000       0.000       0.000       0.000       0.000       0.000       0.000       294.8    
        294.2       293.0       291.2       288.8       285.9       282.3       278.2       273.4       268.1       262.2    
        255.7       248.5       240.8       232.5       223.5       213.9       203.8       192.9       181.5       169.3    
        156.6       143.1       129.0       114.2       98.68       82.45       65.48       47.77       29.28       10.00    
1
              HEAD IN LAYER   2 AT END OF TIME STEP   5 IN STRESS PERIOD    6
  ---------------------------------------------------------------------------

            1           2           3           4           5           6           7           8           9          10
           11          12          13          14          15          16          17          18          19          20
           21          22          23          24          25          26          27          28          29          30
           31          32          33          34          35          36          37          38          39          40
           41          42          43          44          45          46          47          48          49          50
           51          52          53          54          55          56          57          58          59          60
           61          62          63          64          65          66          67          68          69          70
           71          72          73          74          75          76          77          78          79          80
           81          82          83          84          85          86          87          88          89          90
           91          92          93          94          95          96          97          98          99         100
 ........................................................................................................................
   1    187.1       187.1       187.2       187.3       187.4       187.5       187.7       187.8       188.0       188.1    
        188.3       188.5       188.7       188.8       189.0       189.2       189.3       189.5       189.6       189.7    
        189.8       189.9       190.0       190.1       190.2       190.2       190.3       190.3       190.4       190.4    
        190.4       190.5       190.5       190.5       190.6       190.6       190.7       190.7       190.7       190.8    
        190.8       190.9       190.9       190.9       191.0       191.0       191.1       191.1       191.1       191.2    
        191.2       191.3       191.3       191.4       191.4       191.4       191.5       191.5       191.6       191.6    
        191.6       191.7       191.7       191.8       191.8       191.9       191.9       192.0       192.0       192.0    
        192.1       192.1       192.1       192.0       192.0       191.9       191.8       191.7       191.6       191.5    
        191.4       191.2       191.1       190.9       190.7       190.5       190.3       190.1       189.9       189.8    
        189.6       189.4       189.2       189.1       188.9       188.8       188.7       188.6       188.5       188.5    
1
              HEAD IN LAYER   3 AT END OF TIME STEP   5 IN STRESS PERIOD    6
  ---------------------------------------------------------------------------

            1           2           3           4           5           6           7           8           9          10
           11          12          13          14          15          16          17          18          19          20
           21          22          23          24          25          26          27          28          29          30
           31          32          33          34          35          36          37          38          39          40
           41          42          43          44          45          46          47          48          49          50
           51          52          53          54          55          56          57          58          59          60
           61          62          63          64          65          66          67          68          69          70
           71          72          73          74          75          76          77          78          79          80
           81          82          83          84          85          86          87          88          89          90
           91          92          93          94          95          96          97          98          99         100
 ........................................................................................................................
   1    190.1       190.1       190.1       190.1       190.1       190.1       190.1       190.1       190.1       190.1    
        190.1       190.1       190.1       190.1       190.1       190.1       190.1       190.1       190.2       190.2    
        190.2       190.2       190.2       190.2       190.2       190.2       190.2       190.2       190.2       190.2    
        190.2       190.2       190.3       190.3       190.3       190.3       190.3       190.3       190.3       190.3    
        190.3       190.3       190.3       190.3       190.3       190.3       190.3       190.3       190.4       190.4    
        190.4       190.4       190.4       190.4       190.4       190.4       190.4       190.4       190.4       190.4    
        190.4       190.4       190.4       190.4       190.4       190.4       190.4       190.4       190.4       190.4    
        190.4       190.4       190.4       190.4       190.4       190.4       190.4       190.4       190.4       190.4    
        190.4       190.4       190.4       190.4       190.4       190.4       190.4       190.4       190.4       190.4    
        190.4       190.4       190.4       190.4       190.4       190.4       190.4       190.4       190.4       190.4    

 HEAD WILL BE SAVED ON UNIT   51 AT END OF TIME STEP    5, STRESS PERIOD    6

 DRAWDOWN WILL BE SAVED ON UNIT   52 AT END OF TIME STEP    5, STRESS PERIOD    6
1
  VOLUMETRIC BUDGET FOR ENTIRE MODEL AT END OF TIME STEP    5, STRESS PERIOD   6
  ------------------------------------------------------------------------------

     CUMULATIVE VOLUMES      L**3       RATES FOR THIS TIME STEP      L**3/T
     ------------------                 ------------------------

           IN:                                      IN:
           ---                                      ---
             STORAGE =           0.4080               STORAGE =       1.2483E-04
       CONSTANT HEAD =           0.0000         CONSTANT HEAD =           0.0000
               WELLS =           0.0000                 WELLS =           0.0000
            RECHARGE =    64750456.0000              RECHARGE =       37620.0000
    INST. IB STORAGE =           0.5491      INST. IB STORAGE =       2.0297E-04
    DELAY IB STORAGE =           1.4874      DELAY IB STORAGE =       3.9700E-04

            TOTAL IN =    64750456.0000              TOTAL IN =       37620.0000

          OUT:                                     OUT:
          ----                                     ----
             STORAGE =           0.4005               STORAGE =       5.7460E-05
       CONSTANT HEAD =    64750456.0000         CONSTANT HEAD =       37620.0000
               WELLS =           0.0000                 WELLS =           0.0000
            RECHARGE =           0.0000              RECHARGE =           0.0000
    INST. IB STORAGE =           0.5326      INST. IB STORAGE =       1.4925E-06
    DELAY IB STORAGE =           1.4908      DELAY IB STORAGE =       6.1349E-04

           TOTAL OUT =    64750456.0000             TOTAL OUT =       37620.0000

            IN - OUT =           0.0000              IN - OUT =           0.0000

 PERCENT DISCREPANCY =           0.00     PERCENT DISCREPANCY =           0.00






         TIME SUMMARY AT END OF TIME STEP    5 IN STRESS PERIOD    6
                    SECONDS     MINUTES      HOURS       DAYS        YEARS
                    -----------------------------------------------------------
   TIME STEP LENGTH 7.06678E+06 1.17780E+05  1963.0      81.791     0.22393    
 STRESS PERIOD TIME 2.23751E+07 3.72919E+05  6215.3      258.97     0.70902    
         TOTAL TIME 1.48709E+08 2.47849E+06  41308.      1721.2      4.7123    
1
 
 SOLVING FOR HEAD 
     2 ITERATIONS FOR TIME STEP   6 IN STRESS PERIOD    6

 MAXIMUM HEAD CHANGE FOR EACH ITERATION:

    HEAD CHANGE   HEAD CHANGE   HEAD CHANGE   HEAD CHANGE   HEAD CHANGE
  LAYER,ROW,COL LAYER,ROW,COL LAYER,ROW,COL LAYER,ROW,COL LAYER,ROW,COL
 ----------------------------------------------------------------------
     0.1376E-03    0.5661E-04
  (  3,  1,  9) (  2,  1, 39)


 OUTPUT CONTROL FOR STRESS PERIOD    6   TIME STEP    6
    SAVE HEAD FOR ALL LAYERS
    SAVE DRAWDOWN FOR ALL LAYERS
    SAVE BUDGET
    PRINT HEAD FOR ALL LAYERS
    PRINT BUDGET
1
              HEAD IN LAYER   1 AT END OF TIME STEP   6 IN STRESS PERIOD    6
  ---------------------------------------------------------------------------

            1           2           3           4           5           6           7           8           9          10
           11          12          13          14          15          16          17          18          19          20
           21          22          23          24          25          26          27          28          29          30
           31          32          33          34          35          36          37          38          39          40
           41          42          43          44          45          46          47          48          49          50
           51          52          53          54          55          56          57          58          59          60
           61          62          63          64          65          66          67          68          69          70
           71          72          73          74          75          76          77          78          79          80
           81          82          83          84          85          86          87          88          89          90
           91          92          93          94          95          96          97          98          99         100
 ........................................................................................................................
   1    10.00       31.68       52.10       71.32       89.40       106.4       122.3       137.3       151.2       164.3    
        176.4       187.6       198.0       207.6       216.3       224.3       231.4       237.8       243.5       248.4    
        252.6       256.1       258.9       260.9       262.3       263.0       0.000       0.000       0.000       0.000    
        0.000       0.000       0.000       0.000       0.000       0.000       0.000       0.000       0.000       0.000    
        0.000       0.000       0.000       0.000       0.000       0.000       0.000       0.000       0.000       0.000    
        0.000       0.000       0.000       0.000       0.000       0.000       0.000       0.000       0.000       0.000    
        0.000       0.000       0.000       0.000       0.000       0.000       0.000       0.000       0.000       294.8    
        294.2       293.0       291.2       288.8       285.9       282.3       278.2       273.4       268.1       262.2    
        255.7       248.5       240.8       232.5       223.5       213.9       203.8       192.9       181.5       169.3    
        156.6       143.1       129.0       114.2       98.68       82.45       65.48       47.77       29.28       10.00    
1
              HEAD IN LAYER   2 AT END OF TIME STEP   6 IN STRESS PERIOD    6
  ---------------------------------------------------------------------------

            1           2           3           4           5           6           7           8           9          10
           11          12          13          14          15          16          17          18          19          20
           21          22          23          24          25          26          27          28          29          30
           31          32          33          34          35          36          37          38          39          40
           41          42          43          44          45          46          47          48          49          50
           51          52          53          54          55          56          57          58          59          60
           61          62          63          64          65          66          67          68          69          70
           71          72          73          74          75          76          77          78          79          80
           81          82          83          84          85          86          87          88          89          90
           91          92          93          94          95          96          97          98          99         100
 ........................................................................................................................
   1    187.1       187.1       187.2       187.3       187.4       187.5       187.7       187.8       188.0       188.1    
        188.3       188.5       188.7       188.8       189.0       189.2       189.3       189.5       189.6       189.7    
        189.8       189.9       190.0       190.1       190.2       190.2       190.3       190.3       190.4       190.4    
        190.4       190.5       190.5       190.5       190.6       190.6       190.7       190.7       190.7       190.8    
        190.8       190.9       190.9       190.9       191.0       191.0       191.1       191.1       191.1       191.2    
        191.2       191.3       191.3       191.4       191.4       191.4       191.5       191.5       191.6       191.6    
        191.6       191.7       191.7       191.8       191.8       191.9       191.9       192.0       192.0       192.0    
        192.1       192.1       192.1       192.0       192.0       191.9       191.8       191.7       191.6       191.5    
        191.4       191.2       191.1       190.9       190.7       190.5       190.3       190.1       189.9       189.8    
        189.6       189.4       189.2       189.1       188.9       188.8       188.7       188.6       188.5       188.5    
1
              HEAD IN LAYER   3 AT END OF TIME STEP   6 IN STRESS PERIOD    6
  ---------------------------------------------------------------------------

            1           2           3           4           5           6           7           8           9          10
           11          12          13          14          15          16          17          18          19          20
           21          22          23          24          25          26          27          28          29          30
           31          32          33          34          35          36          37          38          39          40
           41          42          43          44          45          46          47          48          49          50
           51          52          53          54          55          56          57          58          59          60
           61          62          63          64          65          66          67          68          69          70
           71          72          73          74          75          76          77          78          79          80
           81          82          83          84          85          86          87          88          89          90
           91          92          93          94          95          96          97          98          99         100
 ........................................................................................................................
   1    190.1       190.1       190.1       190.1       190.1       190.1       190.1       190.1       190.1       190.1    
        190.1       190.1       190.1       190.1       190.1       190.1       190.1       190.2       190.2       190.2    
        190.2       190.2       190.2       190.2       190.2       190.2       190.2       190.2       190.2       190.2    
        190.2       190.2       190.3       190.3       190.3       190.3       190.3       190.3       190.3       190.3    
        190.3       190.3       190.3       190.3       190.3       190.3       190.3       190.3       190.4       190.4    
        190.4       190.4       190.4       190.4       190.4       190.4       190.4       190.4       190.4       190.4    
        190.4       190.4       190.4       190.4       190.4       190.4       190.4       190.4       190.4       190.4    
        190.4       190.4       190.4       190.4       190.4       190.4       190.4       190.4       190.4       190.4    
        190.4       190.4       190.4       190.4       190.4       190.4       190.4       190.4       190.4       190.4    
        190.4       190.4       190.4       190.4       190.4       190.4       190.4       190.4       190.4       190.4    

 HEAD WILL BE SAVED ON UNIT   51 AT END OF TIME STEP    6, STRESS PERIOD    6

 DRAWDOWN WILL BE SAVED ON UNIT   52 AT END OF TIME STEP    6, STRESS PERIOD    6
1
  VOLUMETRIC BUDGET FOR ENTIRE MODEL AT END OF TIME STEP    6, STRESS PERIOD   6
  ------------------------------------------------------------------------------

     CUMULATIVE VOLUMES      L**3       RATES FOR THIS TIME STEP      L**3/T
     ------------------                 ------------------------

           IN:                                      IN:
           ---                                      ---
             STORAGE =           0.4121               STORAGE =       3.8675E-05
       CONSTANT HEAD =           0.0000         CONSTANT HEAD =           0.0000
               WELLS =           0.0000                 WELLS =           0.0000
            RECHARGE =    68750544.0000              RECHARGE =       37620.0000
    INST. IB STORAGE =           0.5492      INST. IB STORAGE =       8.6103E-07
    DELAY IB STORAGE =           1.5884      DELAY IB STORAGE =       9.5009E-04

            TOTAL IN =    68750544.0000              TOTAL IN =       37620.0000

          OUT:                                     OUT:
          ----                                     ----
             STORAGE =           0.4235               STORAGE =       2.1565E-04
       CONSTANT HEAD =    68750544.0000         CONSTANT HEAD =       37620.0000
               WELLS =           0.0000                 WELLS =           0.0000
            RECHARGE =           0.0000              RECHARGE =           0.0000
    INST. IB STORAGE =           0.5643      INST. IB STORAGE =       2.9763E-04
    DELAY IB STORAGE =           1.4969      DELAY IB STORAGE =       5.6891E-05

           TOTAL OUT =    68750544.0000             TOTAL OUT =       37620.0000

            IN - OUT =           0.0000              IN - OUT =           0.0000

 PERCENT DISCREPANCY =           0.00     PERCENT DISCREPANCY =           0.00






         TIME SUMMARY AT END OF TIME STEP    6 IN STRESS PERIOD    6
                    SECONDS     MINUTES      HOURS       DAYS        YEARS
                    -----------------------------------------------------------
   TIME STEP LENGTH 9.18681E+06 1.53113E+05  2551.9      106.33     0.29111    
 STRESS PERIOD TIME 3.15619E+07 5.26032E+05  8767.2      365.30      1.0001    
         TOTAL TIME 1.57896E+08 2.63160E+06  43860.      1827.5      5.0034    
1

                               VOLUMETRIC BUDGET FOR SYSTEMS OF DELAY INTERBEDS
                                          AT END OF TIME STEP  6 IN STRESS PERIOD  6

          |   C U M U L A T I V E   V O L U M E S   L**3           | R A T E S   F O R  T H I S  T I M E  S T E P   L**3/T  |
   SYSTEM |    CHANGE IN     BOUNDARY                    PERCENT   |    CHANGE IN     BOUNDARY                    PERCENT   |
   NUMBER |     STORAGE        FLOW           SUM      DISCREPANCY |     STORAGE        FLOW           SUM      DISCREPANCY |
  --------|--------------------------------------------------------|--------------------------------------------------------|
      1    0.27885E-01   -0.27885E-01    0.18626E-07    0.66798E-04    0.28414E-03   -0.28414E-03     0.0000         0.0000    
      2    0.63630E-01   -0.63630E-01   -0.74506E-07   -0.11709E-03    0.60906E-03   -0.60906E-03     0.0000         0.0000    
  --------|--------------------------------------------------------|--------------------------------------------------------|
 TOTALS:    0.91515E-01   -0.91515E-01   -0.59605E-07   -0.65131E-04    0.89320E-03   -0.89320E-03     0.0000         0.0000    
1
                            STRESS PERIOD NO.    7, LENGTH =   365.3000    
                            -----------------------------------------------

                              NUMBER OF TIME STEPS =     6

                               MULTIPLIER FOR DELT =     1.300

                            INITIAL TIME STEP SIZE =   28.63744    

 WELL NO.  LAYER   ROW   COL   STRESS RATE         
 --------------------------------------------------
      1      1      1     50     -0.1532E+06

      1 WELL 

 REUSING RECH FROM LAST STRESS PERIOD
 
 SOLVING FOR HEAD 

     2 ITERATIONS FOR TIME STEP   1 IN STRESS PERIOD    7

 OUTPUT CONTROL FOR STRESS PERIOD    7   TIME STEP    1
    SAVE HEAD FOR ALL LAYERS
    SAVE DRAWDOWN FOR ALL LAYERS
    SAVE BUDGET
    PRINT HEAD FOR ALL LAYERS
    PRINT BUDGET
1
              HEAD IN LAYER   1 AT END OF TIME STEP   1 IN STRESS PERIOD    7
  ---------------------------------------------------------------------------

            1           2           3           4           5           6           7           8           9          10
           11          12          13          14          15          16          17          18          19          20
           21          22          23          24          25          26          27          28          29          30
           31          32          33          34          35          36          37          38          39          40
           41          42          43          44          45          46          47          48          49          50
           51          52          53          54          55          56          57          58          59          60
           61          62          63          64          65          66          67          68          69          70
           71          72          73          74          75          76          77          78          79          80
           81          82          83          84          85          86          87          88          89          90
           91          92          93          94          95          96          97          98          99         100
 ........................................................................................................................
   1    10.00       31.68       52.10       71.32       89.40       106.4       122.3       137.3       151.2       164.3    
        176.4       187.6       198.0       207.6       216.3       224.3       231.4       237.8       243.5       248.4    
        252.6       256.1       258.9       260.9       262.3       263.0       0.000       0.000       0.000       0.000    
        0.000       0.000       0.000       0.000       0.000       0.000       0.000       0.000       0.000       0.000    
        0.000       0.000       0.000       0.000       0.000       0.000       0.000       0.000       0.000       0.000    
        0.000       0.000       0.000       0.000       0.000       0.000       0.000       0.000       0.000       0.000    
        0.000       0.000       0.000       0.000       0.000       0.000       0.000       0.000       0.000       294.8    
        294.2       293.0       291.2       288.8       285.9       282.3       278.2       273.4       268.1       262.2    
        255.7       248.5       240.8       232.5       223.5       213.9       203.8       192.9       181.5       169.3    
        156.6       143.1       129.0       114.2       98.68       82.45       65.48       47.77       29.28       10.00    
1
              HEAD IN LAYER   2 AT END OF TIME STEP   1 IN STRESS PERIOD    7
  ---------------------------------------------------------------------------

            1           2           3           4           5           6           7           8           9          10
           11          12          13          14          15          16          17          18          19          20
           21          22          23          24          25          26          27          28          29          30
           31          32          33          34          35          36          37          38          39          40
           41          42          43          44          45          46          47          48          49          50
           51          52          53          54          55          56          57          58          59          60
           61          62          63          64          65          66          67          68          69          70
           71          72          73          74          75          76          77          78          79          80
           81          82          83          84          85          86          87          88          89          90
           91          92          93          94          95          96          97          98          99         100
 ........................................................................................................................
   1    187.1       187.1       187.2       187.3       187.4       187.5       187.7       187.8       188.0       188.1    
        188.3       188.5       188.7       188.8       189.0       189.2       189.3       189.5       189.6       189.7    
        189.8       189.9       190.0       190.1       190.2       190.2       190.3       190.3       190.4       190.4    
        190.4       190.5       190.5       190.5       190.6       190.6       190.7       190.7       190.7       190.8    
        190.8       190.9       190.9       190.9       191.0       191.0       191.1       191.1       191.1       191.2    
        191.2       191.3       191.3       191.4       191.4       191.4       191.5       191.5       191.6       191.6    
        191.6       191.7       191.7       191.8       191.8       191.9       191.9       192.0       192.0       192.0    
        192.1       192.1       192.1       192.0       192.0       191.9       191.8       191.7       191.6       191.5    
        191.4       191.2       191.1       190.9       190.7       190.5       190.3       190.1       189.9       189.8    
        189.6       189.4       189.2       189.1       188.9       188.8       188.7       188.6       188.5       188.5    
1
              HEAD IN LAYER   3 AT END OF TIME STEP   1 IN STRESS PERIOD    7
  ---------------------------------------------------------------------------

            1           2           3           4           5           6           7           8           9          10
           11          12          13          14          15          16          17          18          19          20
           21          22          23          24          25          26          27          28          29          30
           31          32          33          34          35          36          37          38          39          40
           41          42          43          44          45          46          47          48          49          50
           51          52          53          54          55          56          57          58          59          60
           61          62          63          64          65          66          67          68          69          70
           71          72          73          74          75          76          77          78          79          80
           81          82          83          84          85          86          87          88          89          90
           91          92          93          94          95          96          97          98          99         100
 ........................................................................................................................
   1    190.1       190.1       190.1       190.1       190.1       190.1       190.1       190.1       190.1       190.1    
        190.1       190.1       190.1       190.1       190.1       190.1       190.1       190.1       190.2       190.2    
        190.2       190.2       190.2       190.2       190.2       190.2       190.2       190.2       190.2       190.2    
        190.2       190.2       190.3       190.3       190.3       190.3       190.3       190.3       190.3       190.3    
        190.3       190.3       190.3       190.3       190.3       190.3       190.3       190.3       190.4       190.4    
        190.4       190.4       190.4       190.4       190.4       190.4       190.4       190.4       190.4       190.4    
        190.4       190.4       190.4       190.4       190.4       190.4       190.4       190.4       190.4       190.4    
        190.4       190.4       190.4       190.4       190.4       190.4       190.4       190.4       190.4       190.4    
        190.4       190.4       190.4       190.4       190.4       190.4       190.4       190.4       190.4       190.4    
        190.4       190.4       190.4       190.4       190.4       190.4       190.4       190.4       190.4       190.4    

 HEAD WILL BE SAVED ON UNIT   51 AT END OF TIME STEP    1, STRESS PERIOD    7

 DRAWDOWN WILL BE SAVED ON UNIT   52 AT END OF TIME STEP    1, STRESS PERIOD    7
1
  VOLUMETRIC BUDGET FOR ENTIRE MODEL AT END OF TIME STEP    1, STRESS PERIOD   7
  ------------------------------------------------------------------------------

     CUMULATIVE VOLUMES      L**3       RATES FOR THIS TIME STEP      L**3/T
     ------------------                 ------------------------

           IN:                                      IN:
           ---                                      ---
             STORAGE =           0.4518               STORAGE =       1.3887E-03
       CONSTANT HEAD =           0.0000         CONSTANT HEAD =           0.0000
               WELLS =           0.0000                 WELLS =           0.0000
            RECHARGE =    69827888.0000              RECHARGE =       37620.0000
    INST. IB STORAGE =           0.6116      INST. IB STORAGE =       2.1798E-03
    DELAY IB STORAGE =           1.5994      DELAY IB STORAGE =       3.8554E-04

            TOTAL IN =    69827888.0000              TOTAL IN =       37620.0039

          OUT:                                     OUT:
          ----                                     ----
             STORAGE =           0.4238               STORAGE =       1.0257E-05
       CONSTANT HEAD =    69827888.0000         CONSTANT HEAD =       37620.0000
               WELLS =           0.0000                 WELLS =           0.0000
            RECHARGE =           0.0000              RECHARGE =           0.0000
    INST. IB STORAGE =           0.5643      INST. IB STORAGE =       2.6641E-07
    DELAY IB STORAGE =           1.6056      DELAY IB STORAGE =       3.7953E-03

           TOTAL OUT =    69827888.0000             TOTAL OUT =       37620.0039

            IN - OUT =           0.0000              IN - OUT =           0.0000

 PERCENT DISCREPANCY =           0.00     PERCENT DISCREPANCY =           0.00






         TIME SUMMARY AT END OF TIME STEP    1 IN STRESS PERIOD    7
                    SECONDS     MINUTES      HOURS       DAYS        YEARS
                    -----------------------------------------------------------
   TIME STEP LENGTH 2.47427E+06  41238.      687.30      28.637     7.84050E-02
 STRESS PERIOD TIME 2.47427E+06  41238.      687.30      28.637     7.84050E-02
         TOTAL TIME 1.60370E+08 2.67284E+06  44547.      1856.1      5.0818    
1
 
 SOLVING FOR HEAD 
     2 ITERATIONS FOR TIME STEP   2 IN STRESS PERIOD    7

 OUTPUT CONTROL FOR STRESS PERIOD    7   TIME STEP    2
    SAVE HEAD FOR ALL LAYERS
    SAVE DRAWDOWN FOR ALL LAYERS
    SAVE BUDGET
    PRINT HEAD FOR ALL LAYERS
    PRINT BUDGET
1
              HEAD IN LAYER   1 AT END OF TIME STEP   2 IN STRESS PERIOD    7
  ---------------------------------------------------------------------------

            1           2           3           4           5           6           7           8           9          10
           11          12          13          14          15          16          17          18          19          20
           21          22          23          24          25          26          27          28          29          30
           31          32          33          34          35          36          37          38          39          40
           41          42          43          44          45          46          47          48          49          50
           51          52          53          54          55          56          57          58          59          60
           61          62          63          64          65          66          67          68          69          70
           71          72          73          74          75          76          77          78          79          80
           81          82          83          84          85          86          87          88          89          90
           91          92          93          94          95          96          97          98          99         100
 ........................................................................................................................
   1    10.00       31.68       52.10       71.32       89.40       106.4       122.3       137.3       151.2       164.3    
        176.4       187.6       198.0       207.6       216.3       224.3       231.4       237.8       243.5       248.4    
        252.6       256.1       258.9       260.9       262.3       263.0       0.000       0.000       0.000       0.000    
        0.000       0.000       0.000       0.000       0.000       0.000       0.000       0.000       0.000       0.000    
        0.000       0.000       0.000       0.000       0.000       0.000       0.000       0.000       0.000       0.000    
        0.000       0.000       0.000       0.000       0.000       0.000       0.000       0.000       0.000       0.000    
        0.000       0.000       0.000       0.000       0.000       0.000       0.000       0.000       0.000       294.8    
        294.2       293.0       291.2       288.8       285.9       282.3       278.2       273.4       268.1       262.2    
        255.7       248.5       240.8       232.5       223.5       213.9       203.8       192.9       181.5       169.3    
        156.6       143.1       129.0       114.2       98.68       82.45       65.48       47.77       29.28       10.00    
1
              HEAD IN LAYER   2 AT END OF TIME STEP   2 IN STRESS PERIOD    7
  ---------------------------------------------------------------------------

            1           2           3           4           5           6           7           8           9          10
           11          12          13          14          15          16          17          18          19          20
           21          22          23          24          25          26          27          28          29          30
           31          32          33          34          35          36          37          38          39          40
           41          42          43          44          45          46          47          48          49          50
           51          52          53          54          55          56          57          58          59          60
           61          62          63          64          65          66          67          68          69          70
           71          72          73          74          75          76          77          78          79          80
           81          82          83          84          85          86          87          88          89          90
           91          92          93          94          95          96          97          98          99         100
 ........................................................................................................................
   1    187.1       187.1       187.2       187.3       187.4       187.5       187.7       187.8       188.0       188.1    
        188.3       188.5       188.7       188.8       189.0       189.2       189.3       189.5       189.6       189.7    
        189.8       189.9       190.0       190.1       190.2       190.2       190.3       190.3       190.4       190.4    
        190.4       190.5       190.5       190.5       190.6       190.6       190.7       190.7       190.7       190.8    
        190.8       190.9       190.9       190.9       191.0       191.0       191.1       191.1       191.1       191.2    
        191.2       191.3       191.3       191.4       191.4       191.4       191.5       191.5       191.6       191.6    
        191.6       191.7       191.7       191.8       191.8       191.9       191.9       192.0       192.0       192.0    
        192.1       192.1       192.1       192.0       192.0       191.9       191.8       191.7       191.6       191.5    
        191.4       191.2       191.1       190.9       190.7       190.5       190.3       190.1       189.9       189.8    
        189.6       189.4       189.2       189.1       188.9       188.8       188.7       188.6       188.5       188.5    
1
              HEAD IN LAYER   3 AT END OF TIME STEP   2 IN STRESS PERIOD    7
  ---------------------------------------------------------------------------

            1           2           3           4           5           6           7           8           9          10
           11          12          13          14          15          16          17          18          19          20
           21          22          23          24          25          26          27          28          29          30
           31          32          33          34          35          36          37          38          39          40
           41          42          43          44          45          46          47          48          49          50
           51          52          53          54          55          56          57          58          59          60
           61          62          63          64          65          66          67          68          69          70
           71          72          73          74          75          76          77          78          79          80
           81          82          83          84          85          86          87          88          89          90
           91          92          93          94          95          96          97          98          99         100
 ........................................................................................................................
   1    190.1       190.1       190.1       190.1       190.1       190.1       190.1       190.1       190.1       190.1    
        190.1       190.1       190.1       190.1       190.1       190.1       190.1       190.1       190.2       190.2    
        190.2       190.2       190.2       190.2       190.2       190.2       190.2       190.2       190.2       190.2    
        190.2       190.2       190.3       190.3       190.3       190.3       190.3       190.3       190.3       190.3    
        190.3       190.3       190.3       190.3       190.3       190.3       190.3       190.3       190.4       190.4    
        190.4       190.4       190.4       190.4       190.4       190.4       190.4       190.4       190.4       190.4    
        190.4       190.4       190.4       190.4       190.4       190.4       190.4       190.4       190.4       190.4    
        190.4       190.4       190.4       190.4       190.4       190.4       190.4       190.4       190.4       190.4    
        190.4       190.4       190.4       190.4       190.4       190.4       190.4       190.4       190.4       190.4    
        190.4       190.4       190.4       190.4       190.4       190.4       190.4       190.4       190.4       190.4    

 HEAD WILL BE SAVED ON UNIT   51 AT END OF TIME STEP    2, STRESS PERIOD    7

 DRAWDOWN WILL BE SAVED ON UNIT   52 AT END OF TIME STEP    2, STRESS PERIOD    7
1
  VOLUMETRIC BUDGET FOR ENTIRE MODEL AT END OF TIME STEP    2, STRESS PERIOD   7
  ------------------------------------------------------------------------------

     CUMULATIVE VOLUMES      L**3       RATES FOR THIS TIME STEP      L**3/T
     ------------------                 ------------------------

           IN:                                      IN:
           ---                                      ---
             STORAGE =           0.4560               STORAGE =       1.1099E-04
       CONSTANT HEAD =           0.0000         CONSTANT HEAD =           0.0000
               WELLS =           0.0000                 WELLS =           0.0000
            RECHARGE =    71228432.0000              RECHARGE =       37620.0000
    INST. IB STORAGE =           0.6137      INST. IB STORAGE =       5.4717E-05
    DELAY IB STORAGE =           1.6549      DELAY IB STORAGE =       1.4905E-03

            TOTAL IN =    71228432.0000              TOTAL IN =       37620.0000

          OUT:                                     OUT:
          ----                                     ----
             STORAGE =           0.4415               STORAGE =       4.7636E-04
       CONSTANT HEAD =    71228432.0000         CONSTANT HEAD =       37620.0000
               WELLS =           0.0000                 WELLS =           0.0000
            RECHARGE =           0.0000              RECHARGE =           0.0000
    INST. IB STORAGE =           0.5838      INST. IB STORAGE =       5.2545E-04
    DELAY IB STORAGE =           1.6101      DELAY IB STORAGE =       1.2189E-04

           TOTAL OUT =    71228432.0000             TOTAL OUT =       37620.0000

            IN - OUT =           0.0000              IN - OUT =           0.0000

 PERCENT DISCREPANCY =           0.00     PERCENT DISCREPANCY =           0.00






         TIME SUMMARY AT END OF TIME STEP    2 IN STRESS PERIOD    7
                    SECONDS     MINUTES      HOURS       DAYS        YEARS
                    -----------------------------------------------------------
   TIME STEP LENGTH 3.21656E+06  53609.      893.49      37.229     0.10193    
 STRESS PERIOD TIME 5.69083E+06  94847.      1580.8      65.866     0.18033    
         TOTAL TIME 1.63587E+08 2.72645E+06  45441.      1893.4      5.1838    
1
 
 SOLVING FOR HEAD 
     2 ITERATIONS FOR TIME STEP   3 IN STRESS PERIOD    7

 OUTPUT CONTROL FOR STRESS PERIOD    7   TIME STEP    3
    SAVE HEAD FOR ALL LAYERS
    SAVE DRAWDOWN FOR ALL LAYERS
    SAVE BUDGET
    PRINT HEAD FOR ALL LAYERS
    PRINT BUDGET
1
              HEAD IN LAYER   1 AT END OF TIME STEP   3 IN STRESS PERIOD    7
  ---------------------------------------------------------------------------

            1           2           3           4           5           6           7           8           9          10
           11          12          13          14          15          16          17          18          19          20
           21          22          23          24          25          26          27          28          29          30
           31          32          33          34          35          36          37          38          39          40
           41          42          43          44          45          46          47          48          49          50
           51          52          53          54          55          56          57          58          59          60
           61          62          63          64          65          66          67          68          69          70
           71          72          73          74          75          76          77          78          79          80
           81          82          83          84          85          86          87          88          89          90
           91          92          93          94          95          96          97          98          99         100
 ........................................................................................................................
   1    10.00       31.68       52.10       71.32       89.40       106.4       122.3       137.3       151.2       164.3    
        176.4       187.6       198.0       207.6       216.3       224.3       231.4       237.8       243.5       248.4    
        252.6       256.1       258.9       260.9       262.3       263.0       0.000       0.000       0.000       0.000    
        0.000       0.000       0.000       0.000       0.000       0.000       0.000       0.000       0.000       0.000    
        0.000       0.000       0.000       0.000       0.000       0.000       0.000       0.000       0.000       0.000    
        0.000       0.000       0.000       0.000       0.000       0.000       0.000       0.000       0.000       0.000    
        0.000       0.000       0.000       0.000       0.000       0.000       0.000       0.000       0.000       294.8    
        294.2       293.0       291.2       288.8       285.9       282.3       278.2       273.4       268.1       262.2    
        255.7       248.5       240.8       232.5       223.5       213.9       203.8       192.9       181.5       169.3    
        156.6       143.1       129.0       114.2       98.68       82.45       65.48       47.77       29.28       10.00    
1
              HEAD IN LAYER   2 AT END OF TIME STEP   3 IN STRESS PERIOD    7
  ---------------------------------------------------------------------------

            1           2           3           4           5           6           7           8           9          10
           11          12          13          14          15          16          17          18          19          20
           21          22          23          24          25          26          27          28          29          30
           31          32          33          34          35          36          37          38          39          40
           41          42          43          44          45          46          47          48          49          50
           51          52          53          54          55          56          57          58          59          60
           61          62          63          64          65          66          67          68          69          70
           71          72          73          74          75          76          77          78          79          80
           81          82          83          84          85          86          87          88          89          90
           91          92          93          94          95          96          97          98          99         100
 ........................................................................................................................
   1    187.1       187.1       187.2       187.3       187.4       187.5       187.7       187.8       188.0       188.1    
        188.3       188.5       188.7       188.8       189.0       189.2       189.3       189.5       189.6       189.7    
        189.8       189.9       190.0       190.1       190.2       190.2       190.3       190.3       190.4       190.4    
        190.4       190.5       190.5       190.5       190.6       190.6       190.7       190.7       190.7       190.8    
        190.8       190.9       190.9       190.9       191.0       191.0       191.1       191.1       191.1       191.2    
        191.2       191.3       191.3       191.4       191.4       191.4       191.5       191.5       191.6       191.6    
        191.6       191.7       191.7       191.8       191.8       191.9       191.9       192.0       192.0       192.0    
        192.1       192.1       192.1       192.0       192.0       191.9       191.8       191.7       191.6       191.5    
        191.4       191.2       191.1       190.9       190.7       190.5       190.3       190.1       189.9       189.8    
        189.6       189.4       189.2       189.1       188.9       188.8       188.7       188.6       188.5       188.5    
1
              HEAD IN LAYER   3 AT END OF TIME STEP   3 IN STRESS PERIOD    7
  ---------------------------------------------------------------------------

            1           2           3           4           5           6           7           8           9          10
           11          12          13          14          15          16          17          18          19          20
           21          22          23          24          25          26          27          28          29          30
           31          32          33          34          35          36          37          38          39          40
           41          42          43          44          45          46          47          48          49          50
           51          52          53          54          55          56          57          58          59          60
           61          62          63          64          65          66          67          68          69          70
           71          72          73          74          75          76          77          78          79          80
           81          82          83          84          85          86          87          88          89          90
           91          92          93          94          95          96          97          98          99         100
 ........................................................................................................................
   1    190.1       190.1       190.1       190.1       190.1       190.1       190.1       190.1       190.1       190.1    
        190.1       190.1       190.1       190.1       190.1       190.1       190.1       190.2       190.2       190.2    
        190.2       190.2       190.2       190.2       190.2       190.2       190.2       190.2       190.2       190.2    
        190.2       190.2       190.3       190.3       190.3       190.3       190.3       190.3       190.3       190.3    
        190.3       190.3       190.3       190.3       190.3       190.3       190.3       190.3       190.4       190.4    
        190.4       190.4       190.4       190.4       190.4       190.4       190.4       190.4       190.4       190.4    
        190.4       190.4       190.4       190.4       190.4       190.4       190.4       190.4       190.4       190.4    
        190.4       190.4       190.4       190.4       190.4       190.4       190.4       190.4       190.4       190.4    
        190.4       190.4       190.4       190.4       190.4       190.4       190.4       190.4       190.4       190.4    
        190.4       190.4       190.4       190.4       190.4       190.4       190.4       190.4       190.4       190.4    

 HEAD WILL BE SAVED ON UNIT   51 AT END OF TIME STEP    3, STRESS PERIOD    7

 DRAWDOWN WILL BE SAVED ON UNIT   52 AT END OF TIME STEP    3, STRESS PERIOD    7
1
  VOLUMETRIC BUDGET FOR ENTIRE MODEL AT END OF TIME STEP    3, STRESS PERIOD   7
  ------------------------------------------------------------------------------

     CUMULATIVE VOLUMES      L**3       RATES FOR THIS TIME STEP      L**3/T
     ------------------                 ------------------------

           IN:                                      IN:
           ---                                      ---
             STORAGE =           0.4595               STORAGE =       7.2830E-05
       CONSTANT HEAD =           0.0000         CONSTANT HEAD =           0.0000
               WELLS =           0.0000                 WELLS =           0.0000
            RECHARGE =    73049136.0000              RECHARGE =       37620.0000
    INST. IB STORAGE =           0.6137      INST. IB STORAGE =       1.5764E-06
    DELAY IB STORAGE =           1.7616      DELAY IB STORAGE =       2.2040E-03

            TOTAL IN =    73049136.0000              TOTAL IN =       37620.0039

          OUT:                                     OUT:
          ----                                     ----
             STORAGE =           0.4798               STORAGE =       7.9129E-04
       CONSTANT HEAD =    73049136.0000         CONSTANT HEAD =       37620.0000
               WELLS =           0.0000                 WELLS =           0.0000
            RECHARGE =           0.0000              RECHARGE =           0.0000
    INST. IB STORAGE =           0.6443      INST. IB STORAGE =       1.2493E-03
    DELAY IB STORAGE =           1.6520      DELAY IB STORAGE =       8.6570E-04

           TOTAL OUT =    73049136.0000             TOTAL OUT =       37620.0000

            IN - OUT =           0.0000              IN - OUT =       3.9062E-03

 PERCENT DISCREPANCY =           0.00     PERCENT DISCREPANCY =           0.00






         TIME SUMMARY AT END OF TIME STEP    3 IN STRESS PERIOD    7
                    SECONDS     MINUTES      HOURS       DAYS        YEARS
                    -----------------------------------------------------------
   TIME STEP LENGTH 4.18152E+06  69692.      1161.5      48.397     0.13250    
 STRESS PERIOD TIME 9.87236E+06 1.64539E+05  2742.3      114.26     0.31284    
         TOTAL TIME 1.67768E+08 2.79614E+06  46602.      1941.8      5.3163    
1
 
 SOLVING FOR HEAD 
     2 ITERATIONS FOR TIME STEP   4 IN STRESS PERIOD    7

 OUTPUT CONTROL FOR STRESS PERIOD    7   TIME STEP    4
    SAVE HEAD FOR ALL LAYERS
    SAVE DRAWDOWN FOR ALL LAYERS
    SAVE BUDGET
    PRINT HEAD FOR ALL LAYERS
    PRINT BUDGET
1
              HEAD IN LAYER   1 AT END OF TIME STEP   4 IN STRESS PERIOD    7
  ---------------------------------------------------------------------------

            1           2           3           4           5           6           7           8           9          10
           11          12          13          14          15          16          17          18          19          20
           21          22          23          24          25          26          27          28          29          30
           31          32          33          34          35          36          37          38          39          40
           41          42          43          44          45          46          47          48          49          50
           51          52          53          54          55          56          57          58          59          60
           61          62          63          64          65          66          67          68          69          70
           71          72          73          74          75          76          77          78          79          80
           81          82          83          84          85          86          87          88          89          90
           91          92          93          94          95          96          97          98          99         100
 ........................................................................................................................
   1    10.00       31.68       52.10       71.32       89.40       106.4       122.3       137.3       151.2       164.3    
        176.4       187.6       198.0       207.6       216.3       224.3       231.4       237.8       243.5       248.4    
        252.6       256.1       258.9       260.9       262.3       263.0       0.000       0.000       0.000       0.000    
        0.000       0.000       0.000       0.000       0.000       0.000       0.000       0.000       0.000       0.000    
        0.000       0.000       0.000       0.000       0.000       0.000       0.000       0.000       0.000       0.000    
        0.000       0.000       0.000       0.000       0.000       0.000       0.000       0.000       0.000       0.000    
        0.000       0.000       0.000       0.000       0.000       0.000       0.000       0.000       0.000       294.8    
        294.2       293.0       291.2       288.8       285.9       282.3       278.2       273.4       268.1       262.2    
        255.7       248.5       240.8       232.5       223.5       213.9       203.8       192.9       181.5       169.3    
        156.6       143.1       129.0       114.2       98.68       82.45       65.48       47.77       29.28       10.00    
1
              HEAD IN LAYER   2 AT END OF TIME STEP   4 IN STRESS PERIOD    7
  ---------------------------------------------------------------------------

            1           2           3           4           5           6           7           8           9          10
           11          12          13          14          15          16          17          18          19          20
           21          22          23          24          25          26          27          28          29          30
           31          32          33          34          35          36          37          38          39          40
           41          42          43          44          45          46          47          48          49          50
           51          52          53          54          55          56          57          58          59          60
           61          62          63          64          65          66          67          68          69          70
           71          72          73          74          75          76          77          78          79          80
           81          82          83          84          85          86          87          88          89          90
           91          92          93          94          95          96          97          98          99         100
 ........................................................................................................................
   1    187.1       187.1       187.2       187.3       187.4       187.5       187.7       187.8       188.0       188.1    
        188.3       188.5       188.7       188.8       189.0       189.2       189.3       189.5       189.6       189.7    
        189.8       189.9       190.0       190.1       190.2       190.2       190.3       190.3       190.4       190.4    
        190.4       190.5       190.5       190.5       190.6       190.6       190.7       190.7       190.7       190.8    
        190.8       190.9       190.9       190.9       191.0       191.0       191.1       191.1       191.1       191.2    
        191.2       191.3       191.3       191.4       191.4       191.4       191.5       191.5       191.6       191.6    
        191.6       191.7       191.7       191.8       191.8       191.9       191.9       192.0       192.0       192.0    
        192.1       192.1       192.1       192.0       192.0       191.9       191.8       191.7       191.6       191.5    
        191.4       191.2       191.1       190.9       190.7       190.5       190.3       190.1       189.9       189.8    
        189.6       189.4       189.2       189.1       188.9       188.8       188.7       188.6       188.5       188.5    
1
              HEAD IN LAYER   3 AT END OF TIME STEP   4 IN STRESS PERIOD    7
  ---------------------------------------------------------------------------

            1           2           3           4           5           6           7           8           9          10
           11          12          13          14          15          16          17          18          19          20
           21          22          23          24          25          26          27          28          29          30
           31          32          33          34          35          36          37          38          39          40
           41          42          43          44          45          46          47          48          49          50
           51          52          53          54          55          56          57          58          59          60
           61          62          63          64          65          66          67          68          69          70
           71          72          73          74          75          76          77          78          79          80
           81          82          83          84          85          86          87          88          89          90
           91          92          93          94          95          96          97          98          99         100
 ........................................................................................................................
   1    190.1       190.1       190.1       190.1       190.1       190.1       190.1       190.1       190.1       190.1    
        190.1       190.1       190.1       190.1       190.1       190.1       190.1       190.1       190.2       190.2    
        190.2       190.2       190.2       190.2       190.2       190.2       190.2       190.2       190.2       190.2    
        190.2       190.2       190.3       190.3       190.3       190.3       190.3       190.3       190.3       190.3    
        190.3       190.3       190.3       190.3       190.3       190.3       190.3       190.3       190.4       190.4    
        190.4       190.4       190.4       190.4       190.4       190.4       190.4       190.4       190.4       190.4    
        190.4       190.4       190.4       190.4       190.4       190.4       190.4       190.4       190.4       190.4    
        190.4       190.4       190.4       190.4       190.4       190.4       190.4       190.4       190.4       190.4    
        190.4       190.4       190.4       190.4       190.4       190.4       190.4       190.4       190.4       190.4    
        190.4       190.4       190.4       190.4       190.4       190.4       190.4       190.4       190.4       190.4    

 HEAD WILL BE SAVED ON UNIT   51 AT END OF TIME STEP    4, STRESS PERIOD    7

 DRAWDOWN WILL BE SAVED ON UNIT   52 AT END OF TIME STEP    4, STRESS PERIOD    7
1
  VOLUMETRIC BUDGET FOR ENTIRE MODEL AT END OF TIME STEP    4, STRESS PERIOD   7
  ------------------------------------------------------------------------------

     CUMULATIVE VOLUMES      L**3       RATES FOR THIS TIME STEP      L**3/T
     ------------------                 ------------------------

           IN:                                      IN:
           ---                                      ---
             STORAGE =           0.4830               STORAGE =       3.7415E-04
       CONSTANT HEAD =           0.0000         CONSTANT HEAD =           0.0000
               WELLS =           0.0000                 WELLS =           0.0000
            RECHARGE =    75416056.0000              RECHARGE =       37620.0000
    INST. IB STORAGE =           0.6465      INST. IB STORAGE =       5.2131E-04
    DELAY IB STORAGE =           1.7671      DELAY IB STORAGE =       8.8395E-05

            TOTAL IN =    75416056.0000              TOTAL IN =       37620.0000

          OUT:                                     OUT:
          ----                                     ----
             STORAGE =           0.4798               STORAGE =           0.0000
       CONSTANT HEAD =    75416056.0000         CONSTANT HEAD =       37620.0000
               WELLS =           0.0000                 WELLS =           0.0000
            RECHARGE =           0.0000              RECHARGE =           0.0000
    INST. IB STORAGE =           0.6443      INST. IB STORAGE =           0.0000
    DELAY IB STORAGE =           1.7514      DELAY IB STORAGE =       1.5806E-03

           TOTAL OUT =    75416056.0000             TOTAL OUT =       37620.0000

            IN - OUT =           0.0000              IN - OUT =           0.0000

 PERCENT DISCREPANCY =           0.00     PERCENT DISCREPANCY =           0.00






         TIME SUMMARY AT END OF TIME STEP    4 IN STRESS PERIOD    7
                    SECONDS     MINUTES      HOURS       DAYS        YEARS
                    -----------------------------------------------------------
   TIME STEP LENGTH 5.43598E+06  90600.      1510.0      62.916     0.17226    
 STRESS PERIOD TIME 1.53083E+07 2.55139E+05  4252.3      177.18     0.48509    
         TOTAL TIME 1.73204E+08 2.88674E+06  48112.      2004.7      5.4885    
1
 
 SOLVING FOR HEAD 
     1 ITERATIONS FOR TIME STEP   5 IN STRESS PERIOD    7

 MAXIMUM HEAD CHANGE FOR EACH ITERATION:

    HEAD CHANGE   HEAD CHANGE   HEAD CHANGE   HEAD CHANGE   HEAD CHANGE
  LAYER,ROW,COL LAYER,ROW,COL LAYER,ROW,COL LAYER,ROW,COL LAYER,ROW,COL
 ----------------------------------------------------------------------
    -0.7850E-04
  (  3,  1, 85)


 OUTPUT CONTROL FOR STRESS PERIOD    7   TIME STEP    5
    SAVE HEAD FOR ALL LAYERS
    SAVE DRAWDOWN FOR ALL LAYERS
    SAVE BUDGET
    PRINT HEAD FOR ALL LAYERS
    PRINT BUDGET
1
              HEAD IN LAYER   1 AT END OF TIME STEP   5 IN STRESS PERIOD    7
  ---------------------------------------------------------------------------

            1           2           3           4           5           6           7           8           9          10
           11          12          13          14          15          16          17          18          19          20
           21          22          23          24          25          26          27          28          29          30
           31          32          33          34          35          36          37          38          39          40
           41          42          43          44          45          46          47          48          49          50
           51          52          53          54          55          56          57          58          59          60
           61          62          63          64          65          66          67          68          69          70
           71          72          73          74          75          76          77          78          79          80
           81          82          83          84          85          86          87          88          89          90
           91          92          93          94          95          96          97          98          99         100
 ........................................................................................................................
   1    10.00       31.68       52.10       71.32       89.40       106.4       122.3       137.3       151.2       164.3    
        176.4       187.6       198.0       207.6       216.3       224.3       231.4       237.8       243.5       248.4    
        252.6       256.1       258.9       260.9       262.3       263.0       0.000       0.000       0.000       0.000    
        0.000       0.000       0.000       0.000       0.000       0.000       0.000       0.000       0.000       0.000    
        0.000       0.000       0.000       0.000       0.000       0.000       0.000       0.000       0.000       0.000    
        0.000       0.000       0.000       0.000       0.000       0.000       0.000       0.000       0.000       0.000    
        0.000       0.000       0.000       0.000       0.000       0.000       0.000       0.000       0.000       294.8    
        294.2       293.0       291.2       288.8       285.9       282.3       278.2       273.4       268.1       262.2    
        255.7       248.5       240.8       232.5       223.5       213.9       203.8       192.9       181.5       169.3    
        156.6       143.1       129.0       114.2       98.68       82.45       65.48       47.77       29.28       10.00    
1
              HEAD IN LAYER   2 AT END OF TIME STEP   5 IN STRESS PERIOD    7
  ---------------------------------------------------------------------------

            1           2           3           4           5           6           7           8           9          10
           11          12          13          14          15          16          17          18          19          20
           21          22          23          24          25          26          27          28          29          30
           31          32          33          34          35          36          37          38          39          40
           41          42          43          44          45          46          47          48          49          50
           51          52          53          54          55          56          57          58          59          60
           61          62          63          64          65          66          67          68          69          70
           71          72          73          74          75          76          77          78          79          80
           81          82          83          84          85          86          87          88          89          90
           91          92          93          94          95          96          97          98          99         100
 ........................................................................................................................
   1    187.1       187.1       187.2       187.3       187.4       187.5       187.7       187.8       188.0       188.1    
        188.3       188.5       188.7       188.8       189.0       189.2       189.3       189.5       189.6       189.7    
        189.8       189.9       190.0       190.1       190.2       190.2       190.3       190.3       190.4       190.4    
        190.4       190.5       190.5       190.5       190.6       190.6       190.7       190.7       190.7       190.8    
        190.8       190.9       190.9       190.9       191.0       191.0       191.1       191.1       191.1       191.2    
        191.2       191.3       191.3       191.4       191.4       191.4       191.5       191.5       191.6       191.6    
        191.6       191.7       191.7       191.8       191.8       191.9       191.9       192.0       192.0       192.0    
        192.1       192.1       192.1       192.0       192.0       191.9       191.8       191.7       191.6       191.5    
        191.4       191.2       191.1       190.9       190.7       190.5       190.3       190.1       189.9       189.8    
        189.6       189.4       189.2       189.1       188.9       188.8       188.7       188.6       188.5       188.5    
1
              HEAD IN LAYER   3 AT END OF TIME STEP   5 IN STRESS PERIOD    7
  ---------------------------------------------------------------------------

            1           2           3           4           5           6           7           8           9          10
           11          12          13          14          15          16          17          18          19          20
           21          22          23          24          25          26          27          28          29          30
           31          32          33          34          35          36          37          38          39          40
           41          42          43          44          45          46          47          48          49          50
           51          52          53          54          55          56          57          58          59          60
           61          62          63          64          65          66          67          68          69          70
           71          72          73          74          75          76          77          78          79          80
           81          82          83          84          85          86          87          88          89          90
           91          92          93          94          95          96          97          98          99         100
 ........................................................................................................................
   1    190.1       190.1       190.1       190.1       190.1       190.1       190.1       190.1       190.1       190.1    
        190.1       190.1       190.1       190.1       190.1       190.1       190.1       190.1       190.2       190.2    
        190.2       190.2       190.2       190.2       190.2       190.2       190.2       190.2       190.2       190.2    
        190.2       190.2       190.3       190.3       190.3       190.3       190.3       190.3       190.3       190.3    
        190.3       190.3       190.3       190.3       190.3       190.3       190.3       190.3       190.4       190.4    
        190.4       190.4       190.4       190.4       190.4       190.4       190.4       190.4       190.4       190.4    
        190.4       190.4       190.4       190.4       190.4       190.4       190.4       190.4       190.4       190.4    
        190.4       190.4       190.4       190.4       190.4       190.4       190.4       190.4       190.4       190.4    
        190.4       190.4       190.4       190.4       190.4       190.4       190.4       190.4       190.4       190.4    
        190.4       190.4       190.4       190.4       190.4       190.4       190.4       190.4       190.4       190.4    

 HEAD WILL BE SAVED ON UNIT   51 AT END OF TIME STEP    5, STRESS PERIOD    7

 DRAWDOWN WILL BE SAVED ON UNIT   52 AT END OF TIME STEP    5, STRESS PERIOD    7
1
  VOLUMETRIC BUDGET FOR ENTIRE MODEL AT END OF TIME STEP    5, STRESS PERIOD   7
  ------------------------------------------------------------------------------

     CUMULATIVE VOLUMES      L**3       RATES FOR THIS TIME STEP      L**3/T
     ------------------                 ------------------------

           IN:                                      IN:
           ---                                      ---
             STORAGE =           0.4931               STORAGE =       1.2263E-04
       CONSTANT HEAD =           0.0000         CONSTANT HEAD =           0.0000
               WELLS =           0.0000                 WELLS =           0.0000
            RECHARGE =    78493048.0000              RECHARGE =       37620.0000
    INST. IB STORAGE =           0.6630      INST. IB STORAGE =       2.0111E-04
    DELAY IB STORAGE =           1.7995      DELAY IB STORAGE =       3.9555E-04

            TOTAL IN =    78493048.0000              TOTAL IN =       37620.0000

          OUT:                                     OUT:
          ----                                     ----
             STORAGE =           0.4845               STORAGE =       5.7460E-05
       CONSTANT HEAD =    78493048.0000         CONSTANT HEAD =       37620.0000
               WELLS =           0.0000                 WELLS =           0.0000
            RECHARGE =           0.0000              RECHARGE =           0.0000
    INST. IB STORAGE =           0.6444      INST. IB STORAGE =       1.4925E-06
    DELAY IB STORAGE =           1.8018      DELAY IB STORAGE =       6.1536E-04

           TOTAL OUT =    78493048.0000             TOTAL OUT =       37620.0000

            IN - OUT =           0.0000              IN - OUT =           0.0000

 PERCENT DISCREPANCY =           0.00     PERCENT DISCREPANCY =           0.00






         TIME SUMMARY AT END OF TIME STEP    5 IN STRESS PERIOD    7
                    SECONDS     MINUTES      HOURS       DAYS        YEARS
                    -----------------------------------------------------------
   TIME STEP LENGTH 7.06678E+06 1.17780E+05  1963.0      81.791     0.22393    
 STRESS PERIOD TIME 2.23751E+07 3.72919E+05  6215.3      258.97     0.70902    
         TOTAL TIME 1.80271E+08 3.00452E+06  50075.      2086.5      5.7124    
1
 
 SOLVING FOR HEAD 
     2 ITERATIONS FOR TIME STEP   6 IN STRESS PERIOD    7

 MAXIMUM HEAD CHANGE FOR EACH ITERATION:

    HEAD CHANGE   HEAD CHANGE   HEAD CHANGE   HEAD CHANGE   HEAD CHANGE
  LAYER,ROW,COL LAYER,ROW,COL LAYER,ROW,COL LAYER,ROW,COL LAYER,ROW,COL
 ----------------------------------------------------------------------
     0.1401E-03    0.5976E-04
  (  3,  1,  9) (  2,  1, 42)


 OUTPUT CONTROL FOR STRESS PERIOD    7   TIME STEP    6
    SAVE HEAD FOR ALL LAYERS
    SAVE DRAWDOWN FOR ALL LAYERS
    SAVE BUDGET
    PRINT HEAD FOR ALL LAYERS
    PRINT BUDGET
1
              HEAD IN LAYER   1 AT END OF TIME STEP   6 IN STRESS PERIOD    7
  ---------------------------------------------------------------------------

            1           2           3           4           5           6           7           8           9          10
           11          12          13          14          15          16          17          18          19          20
           21          22          23          24          25          26          27          28          29          30
           31          32          33          34          35          36          37          38          39          40
           41          42          43          44          45          46          47          48          49          50
           51          52          53          54          55          56          57          58          59          60
           61          62          63          64          65          66          67          68          69          70
           71          72          73          74          75          76          77          78          79          80
           81          82          83          84          85          86          87          88          89          90
           91          92          93          94          95          96          97          98          99         100
 ........................................................................................................................
   1    10.00       31.68       52.10       71.32       89.40       106.4       122.3       137.3       151.2       164.3    
        176.4       187.6       198.0       207.6       216.3       224.3       231.4       237.8       243.5       248.4    
        252.6       256.1       258.9       260.9       262.3       263.0       0.000       0.000       0.000       0.000    
        0.000       0.000       0.000       0.000       0.000       0.000       0.000       0.000       0.000       0.000    
        0.000       0.000       0.000       0.000       0.000       0.000       0.000       0.000       0.000       0.000    
        0.000       0.000       0.000       0.000       0.000       0.000       0.000       0.000       0.000       0.000    
        0.000       0.000       0.000       0.000       0.000       0.000       0.000       0.000       0.000       294.8    
        294.2       293.0       291.2       288.8       285.9       282.3       278.2       273.4       268.1       262.2    
        255.7       248.5       240.8       232.5       223.5       213.9       203.8       192.9       181.5       169.3    
        156.6       143.1       129.0       114.2       98.68       82.45       65.48       47.77       29.28       10.00    
1
              HEAD IN LAYER   2 AT END OF TIME STEP   6 IN STRESS PERIOD    7
  ---------------------------------------------------------------------------

            1           2           3           4           5           6           7           8           9          10
           11          12          13          14          15          16          17          18          19          20
           21          22          23          24          25          26          27          28          29          30
           31          32          33          34          35          36          37          38          39          40
           41          42          43          44          45          46          47          48          49          50
           51          52          53          54          55          56          57          58          59          60
           61          62          63          64          65          66          67          68          69          70
           71          72          73          74          75          76          77          78          79          80
           81          82          83          84          85          86          87          88          89          90
           91          92          93          94          95          96          97          98          99         100
 ........................................................................................................................
   1    187.1       187.1       187.2       187.3       187.4       187.5       187.7       187.8       188.0       188.1    
        188.3       188.5       188.7       188.8       189.0       189.2       189.3       189.5       189.6       189.7    
        189.8       189.9       190.0       190.1       190.2       190.2       190.3       190.3       190.4       190.4    
        190.4       190.5       190.5       190.5       190.6       190.6       190.7       190.7       190.7       190.8    
        190.8       190.9       190.9       190.9       191.0       191.0       191.1       191.1       191.1       191.2    
        191.2       191.3       191.3       191.4       191.4       191.4       191.5       191.5       191.6       191.6    
        191.6       191.7       191.7       191.8       191.8       191.9       191.9       192.0       192.0       192.0    
        192.1       192.1       192.1       192.0       192.0       191.9       191.8       191.7       191.6       191.5    
        191.4       191.2       191.1       190.9       190.7       190.5       190.3       190.1       189.9       189.8    
        189.6       189.4       189.2       189.1       188.9       188.8       188.7       188.6       188.5       188.5    
1
              HEAD IN LAYER   3 AT END OF TIME STEP   6 IN STRESS PERIOD    7
  ---------------------------------------------------------------------------

            1           2           3           4           5           6           7           8           9          10
           11          12          13          14          15          16          17          18          19          20
           21          22          23          24          25          26          27          28          29          30
           31          32          33          34          35          36          37          38          39          40
           41          42          43          44          45          46          47          48          49          50
           51          52          53          54          55          56          57          58          59          60
           61          62          63          64          65          66          67          68          69          70
           71          72          73          74          75          76          77          78          79          80
           81          82          83          84          85          86          87          88          89          90
           91          92          93          94          95          96          97          98          99         100
 ........................................................................................................................
   1    190.1       190.1       190.1       190.1       190.1       190.1       190.1       190.1       190.1       190.1    
        190.1       190.1       190.1       190.1       190.1       190.1       190.1       190.2       190.2       190.2    
        190.2       190.2       190.2       190.2       190.2       190.2       190.2       190.2       190.2       190.2    
        190.2       190.2       190.3       190.3       190.3       190.3       190.3       190.3       190.3       190.3    
        190.3       190.3       190.3       190.3       190.3       190.3       190.3       190.3       190.4       190.4    
        190.4       190.4       190.4       190.4       190.4       190.4       190.4       190.4       190.4       190.4    
        190.4       190.4       190.4       190.4       190.4       190.4       190.4       190.4       190.4       190.4    
        190.4       190.4       190.4       190.4       190.4       190.4       190.4       190.4       190.4       190.4    
        190.4       190.4       190.4       190.4       190.4       190.4       190.4       190.4       190.4       190.4    
        190.4       190.4       190.4       190.4       190.4       190.4       190.4       190.4       190.4       190.4    

 HEAD WILL BE SAVED ON UNIT   51 AT END OF TIME STEP    6, STRESS PERIOD    7

 DRAWDOWN WILL BE SAVED ON UNIT   52 AT END OF TIME STEP    6, STRESS PERIOD    7
1
  VOLUMETRIC BUDGET FOR ENTIRE MODEL AT END OF TIME STEP    6, STRESS PERIOD   7
  ------------------------------------------------------------------------------

     CUMULATIVE VOLUMES      L**3       RATES FOR THIS TIME STEP      L**3/T
     ------------------                 ------------------------

           IN:                                      IN:
           ---                                      ---
             STORAGE =           0.4972               STORAGE =       3.8675E-05
       CONSTANT HEAD =           0.0000         CONSTANT HEAD =           0.0000
               WELLS =           0.0000                 WELLS =           0.0000
            RECHARGE =    82493136.0000              RECHARGE =       37620.0000
    INST. IB STORAGE =           0.6631      INST. IB STORAGE =       8.6103E-07
    DELAY IB STORAGE =           1.8993      DELAY IB STORAGE =       9.3896E-04

            TOTAL IN =    82493136.0000              TOTAL IN =       37620.0000

          OUT:                                     OUT:
          ----                                     ----
             STORAGE =           0.5085               STORAGE =       2.2576E-04
       CONSTANT HEAD =    82493136.0000         CONSTANT HEAD =       37620.0000
               WELLS =           0.0000                 WELLS =           0.0000
            RECHARGE =           0.0000              RECHARGE =           0.0000
    INST. IB STORAGE =           0.6780      INST. IB STORAGE =       3.1586E-04
    DELAY IB STORAGE =           1.8065      DELAY IB STORAGE =       4.4503E-05

           TOTAL OUT =    82493136.0000             TOTAL OUT =       37620.0000

            IN - OUT =           0.0000              IN - OUT =           0.0000

 PERCENT DISCREPANCY =           0.00     PERCENT DISCREPANCY =           0.00






         TIME SUMMARY AT END OF TIME STEP    6 IN STRESS PERIOD    7
                    SECONDS     MINUTES      HOURS       DAYS        YEARS
                    -----------------------------------------------------------
   TIME STEP LENGTH 9.18681E+06 1.53113E+05  2551.9      106.33     0.29111    
 STRESS PERIOD TIME 3.15619E+07 5.26032E+05  8767.2      365.30      1.0001    
         TOTAL TIME 1.89458E+08 3.15763E+06  52627.      2192.8      6.0036    
1

                               VOLUMETRIC BUDGET FOR SYSTEMS OF DELAY INTERBEDS
                                          AT END OF TIME STEP  6 IN STRESS PERIOD  7

          |   C U M U L A T I V E   V O L U M E S   L**3           | R A T E S   F O R  T H I S  T I M E  S T E P   L**3/T  |
   SYSTEM |    CHANGE IN     BOUNDARY                    PERCENT   |    CHANGE IN     BOUNDARY                    PERCENT   |
   NUMBER |     STORAGE        FLOW           SUM      DISCREPANCY |     STORAGE        FLOW           SUM      DISCREPANCY |
  --------|--------------------------------------------------------|--------------------------------------------------------|
      1    0.26407E-01   -0.26407E-01    0.55879E-08    0.21161E-04    0.25534E-03   -0.25534E-03    0.29104E-10    0.11398E-04
      2    0.66425E-01   -0.66425E-01   -0.96858E-07   -0.14581E-03    0.63912E-03   -0.63912E-03    0.11642E-09    0.18215E-04
  --------|--------------------------------------------------------|--------------------------------------------------------|
 TOTALS:    0.92833E-01   -0.92833E-01   -0.89407E-07   -0.96310E-04    0.89446E-03   -0.89446E-03    0.17462E-09    0.19523E-04
1
                            STRESS PERIOD NO.    8, LENGTH =   365.3000    
                            -----------------------------------------------

                              NUMBER OF TIME STEPS =     6

                               MULTIPLIER FOR DELT =     1.300

                            INITIAL TIME STEP SIZE =   28.63744    

 WELL NO.  LAYER   ROW   COL   STRESS RATE         
 --------------------------------------------------
      1      1      1     50     -0.1532E+06

      1 WELL 

 REUSING RECH FROM LAST STRESS PERIOD
 
 SOLVING FOR HEAD 

     2 ITERATIONS FOR TIME STEP   1 IN STRESS PERIOD    8

 OUTPUT CONTROL FOR STRESS PERIOD    8   TIME STEP    1
    SAVE HEAD FOR ALL LAYERS
    SAVE DRAWDOWN FOR ALL LAYERS
    SAVE BUDGET
    PRINT HEAD FOR ALL LAYERS
    PRINT BUDGET
1
              HEAD IN LAYER   1 AT END OF TIME STEP   1 IN STRESS PERIOD    8
  ---------------------------------------------------------------------------

            1           2           3           4           5           6           7           8           9          10
           11          12          13          14          15          16          17          18          19          20
           21          22          23          24          25          26          27          28          29          30
           31          32          33          34          35          36          37          38          39          40
           41          42          43          44          45          46          47          48          49          50
           51          52          53          54          55          56          57          58          59          60
           61          62          63          64          65          66          67          68          69          70
           71          72          73          74          75          76          77          78          79          80
           81          82          83          84          85          86          87          88          89          90
           91          92          93          94          95          96          97          98          99         100
 ........................................................................................................................
   1    10.00       31.68       52.10       71.32       89.40       106.4       122.3       137.3       151.2       164.3    
        176.4       187.6       198.0       207.6       216.3       224.3       231.4       237.8       243.5       248.4    
        252.6       256.1       258.9       260.9       262.3       263.0       0.000       0.000       0.000       0.000    
        0.000       0.000       0.000       0.000       0.000       0.000       0.000       0.000       0.000       0.000    
        0.000       0.000       0.000       0.000       0.000       0.000       0.000       0.000       0.000       0.000    
        0.000       0.000       0.000       0.000       0.000       0.000       0.000       0.000       0.000       0.000    
        0.000       0.000       0.000       0.000       0.000       0.000       0.000       0.000       0.000       294.8    
        294.2       293.0       291.2       288.8       285.9       282.3       278.2       273.4       268.1       262.2    
        255.7       248.5       240.8       232.5       223.5       213.9       203.8       192.9       181.5       169.3    
        156.6       143.1       129.0       114.2       98.68       82.45       65.48       47.77       29.28       10.00    
1
              HEAD IN LAYER   2 AT END OF TIME STEP   1 IN STRESS PERIOD    8
  ---------------------------------------------------------------------------

            1           2           3           4           5           6           7           8           9          10
           11          12          13          14          15          16          17          18          19          20
           21          22          23          24          25          26          27          28          29          30
           31          32          33          34          35          36          37          38          39          40
           41          42          43          44          45          46          47          48          49          50
           51          52          53          54          55          56          57          58          59          60
           61          62          63          64          65          66          67          68          69          70
           71          72          73          74          75          76          77          78          79          80
           81          82          83          84          85          86          87          88          89          90
           91          92          93          94          95          96          97          98          99         100
 ........................................................................................................................
   1    187.1       187.1       187.2       187.3       187.4       187.5       187.7       187.8       188.0       188.1    
        188.3       188.5       188.7       188.8       189.0       189.2       189.3       189.5       189.6       189.7    
        189.8       189.9       190.0       190.1       190.2       190.2       190.3       190.3       190.4       190.4    
        190.4       190.5       190.5       190.5       190.6       190.6       190.7       190.7       190.7       190.8    
        190.8       190.9       190.9       190.9       191.0       191.0       191.1       191.1       191.1       191.2    
        191.2       191.3       191.3       191.4       191.4       191.4       191.5       191.5       191.6       191.6    
        191.6       191.7       191.7       191.8       191.8       191.9       191.9       192.0       192.0       192.0    
        192.1       192.1       192.1       192.0       192.0       191.9       191.8       191.7       191.6       191.5    
        191.4       191.2       191.1       190.9       190.7       190.5       190.3       190.1       189.9       189.8    
        189.6       189.4       189.2       189.1       188.9       188.8       188.7       188.6       188.5       188.5    
1
              HEAD IN LAYER   3 AT END OF TIME STEP   1 IN STRESS PERIOD    8
  ---------------------------------------------------------------------------

            1           2           3           4           5           6           7           8           9          10
           11          12          13          14          15          16          17          18          19          20
           21          22          23          24          25          26          27          28          29          30
           31          32          33          34          35          36          37          38          39          40
           41          42          43          44          45          46          47          48          49          50
           51          52          53          54          55          56          57          58          59          60
           61          62          63          64          65          66          67          68          69          70
           71          72          73          74          75          76          77          78          79          80
           81          82          83          84          85          86          87          88          89          90
           91          92          93          94          95          96          97          98          99         100
 ........................................................................................................................
   1    190.1       190.1       190.1       190.1       190.1       190.1       190.1       190.1       190.1       190.1    
        190.1       190.1       190.1       190.1       190.1       190.1       190.1       190.1       190.2       190.2    
        190.2       190.2       190.2       190.2       190.2       190.2       190.2       190.2       190.2       190.2    
        190.2       190.2       190.3       190.3       190.3       190.3       190.3       190.3       190.3       190.3    
        190.3       190.3       190.3       190.3       190.3       190.3       190.3       190.3       190.4       190.4    
        190.4       190.4       190.4       190.4       190.4       190.4       190.4       190.4       190.4       190.4    
        190.4       190.4       190.4       190.4       190.4       190.4       190.4       190.4       190.4       190.4    
        190.4       190.4       190.4       190.4       190.4       190.4       190.4       190.4       190.4       190.4    
        190.4       190.4       190.4       190.4       190.4       190.4       190.4       190.4       190.4       190.4    
        190.4       190.4       190.4       190.4       190.4       190.4       190.4       190.4       190.4       190.4    

 HEAD WILL BE SAVED ON UNIT   51 AT END OF TIME STEP    1, STRESS PERIOD    8

 DRAWDOWN WILL BE SAVED ON UNIT   52 AT END OF TIME STEP    1, STRESS PERIOD    8
1
  VOLUMETRIC BUDGET FOR ENTIRE MODEL AT END OF TIME STEP    1, STRESS PERIOD   8
  ------------------------------------------------------------------------------

     CUMULATIVE VOLUMES      L**3       RATES FOR THIS TIME STEP      L**3/T
     ------------------                 ------------------------

           IN:                                      IN:
           ---                                      ---
             STORAGE =           0.5375               STORAGE =       1.4090E-03
       CONSTANT HEAD =           0.0000         CONSTANT HEAD =           0.0000
               WELLS =           0.0000                 WELLS =           0.0000
            RECHARGE =    83570480.0000              RECHARGE =       37620.0000
    INST. IB STORAGE =           0.7264      INST. IB STORAGE =       2.2112E-03
    DELAY IB STORAGE =           1.9096      DELAY IB STORAGE =       3.5844E-04

            TOTAL IN =    83570480.0000              TOTAL IN =       37620.0039

          OUT:                                     OUT:
          ----                                     ----
             STORAGE =           0.5088               STORAGE =       1.0257E-05
       CONSTANT HEAD =    83570480.0000         CONSTANT HEAD =       37620.0000
               WELLS =           0.0000                 WELLS =           0.0000
            RECHARGE =           0.0000              RECHARGE =           0.0000
    INST. IB STORAGE =           0.6780      INST. IB STORAGE =       2.6641E-07
    DELAY IB STORAGE =           1.9169      DELAY IB STORAGE =       3.8551E-03

           TOTAL OUT =    83570480.0000             TOTAL OUT =       37620.0039

            IN - OUT =           0.0000              IN - OUT =           0.0000

 PERCENT DISCREPANCY =           0.00     PERCENT DISCREPANCY =           0.00






         TIME SUMMARY AT END OF TIME STEP    1 IN STRESS PERIOD    8
                    SECONDS     MINUTES      HOURS       DAYS        YEARS
                    -----------------------------------------------------------
   TIME STEP LENGTH 2.47427E+06  41238.      687.30      28.637     7.84050E-02
 STRESS PERIOD TIME 2.47427E+06  41238.      687.30      28.637     7.84050E-02
         TOTAL TIME 1.91932E+08 3.19887E+06  53314.      2221.4      6.0820    
1
 
 SOLVING FOR HEAD 
     2 ITERATIONS FOR TIME STEP   2 IN STRESS PERIOD    8

 OUTPUT CONTROL FOR STRESS PERIOD    8   TIME STEP    2
    SAVE HEAD FOR ALL LAYERS
    SAVE DRAWDOWN FOR ALL LAYERS
    SAVE BUDGET
    PRINT HEAD FOR ALL LAYERS
    PRINT BUDGET
1
              HEAD IN LAYER   1 AT END OF TIME STEP   2 IN STRESS PERIOD    8
  ---------------------------------------------------------------------------

            1           2           3           4           5           6           7           8           9          10
           11          12          13          14          15          16          17          18          19          20
           21          22          23          24          25          26          27          28          29          30
           31          32          33          34          35          36          37          38          39          40
           41          42          43          44          45          46          47          48          49          50
           51          52          53          54          55          56          57          58          59          60
           61          62          63          64          65          66          67          68          69          70
           71          72          73          74          75          76          77          78          79          80
           81          82          83          84          85          86          87          88          89          90
           91          92          93          94          95          96          97          98          99         100
 ........................................................................................................................
   1    10.00       31.68       52.10       71.32       89.40       106.4       122.3       137.3       151.2       164.3    
        176.4       187.6       198.0       207.6       216.3       224.3       231.4       237.8       243.5       248.4    
        252.6       256.1       258.9       260.9       262.3       263.0       0.000       0.000       0.000       0.000    
        0.000       0.000       0.000       0.000       0.000       0.000       0.000       0.000       0.000       0.000    
        0.000       0.000       0.000       0.000       0.000       0.000       0.000       0.000       0.000       0.000    
        0.000       0.000       0.000       0.000       0.000       0.000       0.000       0.000       0.000       0.000    
        0.000       0.000       0.000       0.000       0.000       0.000       0.000       0.000       0.000       294.8    
        294.2       293.0       291.2       288.8       285.9       282.3       278.2       273.4       268.1       262.2    
        255.7       248.5       240.8       232.5       223.5       213.9       203.8       192.9       181.5       169.3    
        156.6       143.1       129.0       114.2       98.68       82.45       65.48       47.77       29.28       10.00    
1
              HEAD IN LAYER   2 AT END OF TIME STEP   2 IN STRESS PERIOD    8
  ---------------------------------------------------------------------------

            1           2           3           4           5           6           7           8           9          10
           11          12          13          14          15          16          17          18          19          20
           21          22          23          24          25          26          27          28          29          30
           31          32          33          34          35          36          37          38          39          40
           41          42          43          44          45          46          47          48          49          50
           51          52          53          54          55          56          57          58          59          60
           61          62          63          64          65          66          67          68          69          70
           71          72          73          74          75          76          77          78          79          80
           81          82          83          84          85          86          87          88          89          90
           91          92          93          94          95          96          97          98          99         100
 ........................................................................................................................
   1    187.1       187.1       187.2       187.3       187.4       187.5       187.7       187.8       188.0       188.1    
        188.3       188.5       188.7       188.8       189.0       189.2       189.3       189.5       189.6       189.7    
        189.8       189.9       190.0       190.1       190.2       190.2       190.3       190.3       190.4       190.4    
        190.4       190.5       190.5       190.5       190.6       190.6       190.7       190.7       190.7       190.8    
        190.8       190.9       190.9       190.9       191.0       191.0       191.1       191.1       191.1       191.2    
        191.2       191.3       191.3       191.4       191.4       191.4       191.5       191.5       191.6       191.6    
        191.6       191.7       191.7       191.8       191.8       191.9       191.9       192.0       192.0       192.0    
        192.1       192.1       192.1       192.0       192.0       191.9       191.8       191.7       191.6       191.5    
        191.4       191.2       191.1       190.9       190.7       190.5       190.3       190.1       189.9       189.8    
        189.6       189.4       189.2       189.1       188.9       188.8       188.7       188.6       188.5       188.5    
1
              HEAD IN LAYER   3 AT END OF TIME STEP   2 IN STRESS PERIOD    8
  ---------------------------------------------------------------------------

            1           2           3           4           5           6           7           8           9          10
           11          12          13          14          15          16          17          18          19          20
           21          22          23          24          25          26          27          28          29          30
           31          32          33          34          35          36          37          38          39          40
           41          42          43          44          45          46          47          48          49          50
           51          52          53          54          55          56          57          58          59          60
           61          62          63          64          65          66          67          68          69          70
           71          72          73          74          75          76          77          78          79          80
           81          82          83          84          85          86          87          88          89          90
           91          92          93          94          95          96          97          98          99         100
 ........................................................................................................................
   1    190.1       190.1       190.1       190.1       190.1       190.1       190.1       190.1       190.1       190.1    
        190.1       190.1       190.1       190.1       190.1       190.1       190.1       190.1       190.2       190.2    
        190.2       190.2       190.2       190.2       190.2       190.2       190.2       190.2       190.2       190.2    
        190.2       190.2       190.3       190.3       190.3       190.3       190.3       190.3       190.3       190.3    
        190.3       190.3       190.3       190.3       190.3       190.3       190.3       190.3       190.4       190.4    
        190.4       190.4       190.4       190.4       190.4       190.4       190.4       190.4       190.4       190.4    
        190.4       190.4       190.4       190.4       190.4       190.4       190.4       190.4       190.4       190.4    
        190.4       190.4       190.4       190.4       190.4       190.4       190.4       190.4       190.4       190.4    
        190.4       190.4       190.4       190.4       190.4       190.4       190.4       190.4       190.4       190.4    
        190.4       190.4       190.4       190.4       190.4       190.4       190.4       190.4       190.4       190.4    

 HEAD WILL BE SAVED ON UNIT   51 AT END OF TIME STEP    2, STRESS PERIOD    8

 DRAWDOWN WILL BE SAVED ON UNIT   52 AT END OF TIME STEP    2, STRESS PERIOD    8
1
  VOLUMETRIC BUDGET FOR ENTIRE MODEL AT END OF TIME STEP    2, STRESS PERIOD   8
  ------------------------------------------------------------------------------

     CUMULATIVE VOLUMES      L**3       RATES FOR THIS TIME STEP      L**3/T
     ------------------                 ------------------------

           IN:                                      IN:
           ---                                      ---
             STORAGE =           0.5417               STORAGE =       1.1139E-04
       CONSTANT HEAD =           0.0000         CONSTANT HEAD =           0.0000
               WELLS =           0.0000                 WELLS =           0.0000
            RECHARGE =    84971024.0000              RECHARGE =       37620.0000
    INST. IB STORAGE =           0.7285      INST. IB STORAGE =       5.5537E-05
    DELAY IB STORAGE =           1.9635      DELAY IB STORAGE =       1.4468E-03

            TOTAL IN =    84971024.0000              TOTAL IN =       37620.0000

          OUT:                                     OUT:
          ----                                     ----
             STORAGE =           0.5262               STORAGE =       4.6669E-04
       CONSTANT HEAD =    84971024.0000         CONSTANT HEAD =       37620.0000
               WELLS =           0.0000                 WELLS =           0.0000
            RECHARGE =           0.0000              RECHARGE =           0.0000
    INST. IB STORAGE =           0.6970      INST. IB STORAGE =       5.0987E-04
    DELAY IB STORAGE =           1.9218      DELAY IB STORAGE =       1.3192E-04

           TOTAL OUT =    84971024.0000             TOTAL OUT =       37620.0000

            IN - OUT =           0.0000              IN - OUT =           0.0000

 PERCENT DISCREPANCY =           0.00     PERCENT DISCREPANCY =           0.00






         TIME SUMMARY AT END OF TIME STEP    2 IN STRESS PERIOD    8
                    SECONDS     MINUTES      HOURS       DAYS        YEARS
                    -----------------------------------------------------------
   TIME STEP LENGTH 3.21656E+06  53609.      893.49      37.229     0.10193    
 STRESS PERIOD TIME 5.69083E+06  94847.      1580.8      65.866     0.18033    
         TOTAL TIME 1.95149E+08 3.25248E+06  54208.      2258.7      6.1839    
1
 
 SOLVING FOR HEAD 
     2 ITERATIONS FOR TIME STEP   3 IN STRESS PERIOD    8

 OUTPUT CONTROL FOR STRESS PERIOD    8   TIME STEP    3
    SAVE HEAD FOR ALL LAYERS
    SAVE DRAWDOWN FOR ALL LAYERS
    SAVE BUDGET
    PRINT HEAD FOR ALL LAYERS
    PRINT BUDGET
1
              HEAD IN LAYER   1 AT END OF TIME STEP   3 IN STRESS PERIOD    8
  ---------------------------------------------------------------------------

            1           2           3           4           5           6           7           8           9          10
           11          12          13          14          15          16          17          18          19          20
           21          22          23          24          25          26          27          28          29          30
           31          32          33          34          35          36          37          38          39          40
           41          42          43          44          45          46          47          48          49          50
           51          52          53          54          55          56          57          58          59          60
           61          62          63          64          65          66          67          68          69          70
           71          72          73          74          75          76          77          78          79          80
           81          82          83          84          85          86          87          88          89          90
           91          92          93          94          95          96          97          98          99         100
 ........................................................................................................................
   1    10.00       31.68       52.10       71.32       89.40       106.4       122.3       137.3       151.2       164.3    
        176.4       187.6       198.0       207.6       216.3       224.3       231.4       237.8       243.5       248.4    
        252.6       256.1       258.9       260.9       262.3       263.0       0.000       0.000       0.000       0.000    
        0.000       0.000       0.000       0.000       0.000       0.000       0.000       0.000       0.000       0.000    
        0.000       0.000       0.000       0.000       0.000       0.000       0.000       0.000       0.000       0.000    
        0.000       0.000       0.000       0.000       0.000       0.000       0.000       0.000       0.000       0.000    
        0.000       0.000       0.000       0.000       0.000       0.000       0.000       0.000       0.000       294.8    
        294.2       293.0       291.2       288.8       285.9       282.3       278.2       273.4       268.1       262.2    
        255.7       248.5       240.8       232.5       223.5       213.9       203.8       192.9       181.5       169.3    
        156.6       143.1       129.0       114.2       98.68       82.45       65.48       47.77       29.28       10.00    
1
              HEAD IN LAYER   2 AT END OF TIME STEP   3 IN STRESS PERIOD    8
  ---------------------------------------------------------------------------

            1           2           3           4           5           6           7           8           9          10
           11          12          13          14          15          16          17          18          19          20
           21          22          23          24          25          26          27          28          29          30
           31          32          33          34          35          36          37          38          39          40
           41          42          43          44          45          46          47          48          49          50
           51          52          53          54          55          56          57          58          59          60
           61          62          63          64          65          66          67          68          69          70
           71          72          73          74          75          76          77          78          79          80
           81          82          83          84          85          86          87          88          89          90
           91          92          93          94          95          96          97          98          99         100
 ........................................................................................................................
   1    187.1       187.1       187.2       187.3       187.4       187.5       187.7       187.8       188.0       188.1    
        188.3       188.5       188.7       188.8       189.0       189.2       189.3       189.5       189.6       189.7    
        189.8       189.9       190.0       190.1       190.2       190.2       190.3       190.3       190.4       190.4    
        190.4       190.5       190.5       190.5       190.6       190.6       190.7       190.7       190.7       190.8    
        190.8       190.9       190.9       190.9       191.0       191.0       191.1       191.1       191.1       191.2    
        191.2       191.3       191.3       191.4       191.4       191.4       191.5       191.5       191.6       191.6    
        191.6       191.7       191.7       191.8       191.8       191.9       191.9       192.0       192.0       192.0    
        192.1       192.1       192.1       192.0       192.0       191.9       191.8       191.7       191.6       191.5    
        191.4       191.2       191.1       190.9       190.7       190.5       190.3       190.1       189.9       189.8    
        189.6       189.4       189.2       189.1       188.9       188.8       188.7       188.6       188.5       188.5    
1
              HEAD IN LAYER   3 AT END OF TIME STEP   3 IN STRESS PERIOD    8
  ---------------------------------------------------------------------------

            1           2           3           4           5           6           7           8           9          10
           11          12          13          14          15          16          17          18          19          20
           21          22          23          24          25          26          27          28          29          30
           31          32          33          34          35          36          37          38          39          40
           41          42          43          44          45          46          47          48          49          50
           51          52          53          54          55          56          57          58          59          60
           61          62          63          64          65          66          67          68          69          70
           71          72          73          74          75          76          77          78          79          80
           81          82          83          84          85          86          87          88          89          90
           91          92          93          94          95          96          97          98          99         100
 ........................................................................................................................
   1    190.1       190.1       190.1       190.1       190.1       190.1       190.1       190.1       190.1       190.1    
        190.1       190.1       190.1       190.1       190.1       190.1       190.1       190.2       190.2       190.2    
        190.2       190.2       190.2       190.2       190.2       190.2       190.2       190.2       190.2       190.2    
        190.2       190.2       190.3       190.3       190.3       190.3       190.3       190.3       190.3       190.3    
        190.3       190.3       190.3       190.3       190.3       190.3       190.3       190.3       190.4       190.4    
        190.4       190.4       190.4       190.4       190.4       190.4       190.4       190.4       190.4       190.4    
        190.4       190.4       190.4       190.4       190.4       190.4       190.4       190.4       190.4       190.4    
        190.4       190.4       190.4       190.4       190.4       190.4       190.4       190.4       190.4       190.4    
        190.4       190.4       190.4       190.4       190.4       190.4       190.4       190.4       190.4       190.4    
        190.4       190.4       190.4       190.4       190.4       190.4       190.4       190.4       190.4       190.4    

 HEAD WILL BE SAVED ON UNIT   51 AT END OF TIME STEP    3, STRESS PERIOD    8

 DRAWDOWN WILL BE SAVED ON UNIT   52 AT END OF TIME STEP    3, STRESS PERIOD    8
1
  VOLUMETRIC BUDGET FOR ENTIRE MODEL AT END OF TIME STEP    3, STRESS PERIOD   8
  ------------------------------------------------------------------------------

     CUMULATIVE VOLUMES      L**3       RATES FOR THIS TIME STEP      L**3/T
     ------------------                 ------------------------

           IN:                                      IN:
           ---                                      ---
             STORAGE =           0.5440               STORAGE =       4.8553E-05
       CONSTANT HEAD =           0.0000         CONSTANT HEAD =           0.0000
               WELLS =           0.0000                 WELLS =           0.0000
            RECHARGE =    86791728.0000              RECHARGE =       37620.0000
    INST. IB STORAGE =           0.7285      INST. IB STORAGE =       9.4585E-07
    DELAY IB STORAGE =           2.0692      DELAY IB STORAGE =       2.1845E-03

            TOTAL IN =    86791728.0000              TOTAL IN =       37620.0039

          OUT:                                     OUT:
          ----                                     ----
             STORAGE =           0.5642               STORAGE =       7.8520E-04
       CONSTANT HEAD =    86791728.0000         CONSTANT HEAD =       37620.0000
               WELLS =           0.0000                 WELLS =           0.0000
            RECHARGE =           0.0000              RECHARGE =           0.0000
    INST. IB STORAGE =           0.7569      INST. IB STORAGE =       1.2386E-03
    DELAY IB STORAGE =           1.9637      DELAY IB STORAGE =       8.6541E-04

           TOTAL OUT =    86791728.0000             TOTAL OUT =       37620.0000

            IN - OUT =           0.0000              IN - OUT =       3.9062E-03

 PERCENT DISCREPANCY =           0.00     PERCENT DISCREPANCY =           0.00






         TIME SUMMARY AT END OF TIME STEP    3 IN STRESS PERIOD    8
                    SECONDS     MINUTES      HOURS       DAYS        YEARS
                    -----------------------------------------------------------
   TIME STEP LENGTH 4.18152E+06  69692.      1161.5      48.397     0.13250    
 STRESS PERIOD TIME 9.87236E+06 1.64539E+05  2742.3      114.26     0.31284    
         TOTAL TIME 1.99330E+08 3.32217E+06  55370.      2307.1      6.3164    
1
 
 SOLVING FOR HEAD 
     2 ITERATIONS FOR TIME STEP   4 IN STRESS PERIOD    8

 OUTPUT CONTROL FOR STRESS PERIOD    8   TIME STEP    4
    SAVE HEAD FOR ALL LAYERS
    SAVE DRAWDOWN FOR ALL LAYERS
    SAVE BUDGET
    PRINT HEAD FOR ALL LAYERS
    PRINT BUDGET
1
              HEAD IN LAYER   1 AT END OF TIME STEP   4 IN STRESS PERIOD    8
  ---------------------------------------------------------------------------

            1           2           3           4           5           6           7           8           9          10
           11          12          13          14          15          16          17          18          19          20
           21          22          23          24          25          26          27          28          29          30
           31          32          33          34          35          36          37          38          39          40
           41          42          43          44          45          46          47          48          49          50
           51          52          53          54          55          56          57          58          59          60
           61          62          63          64          65          66          67          68          69          70
           71          72          73          74          75          76          77          78          79          80
           81          82          83          84          85          86          87          88          89          90
           91          92          93          94          95          96          97          98          99         100
 ........................................................................................................................
   1    10.00       31.68       52.10       71.32       89.40       106.4       122.3       137.3       151.2       164.3    
        176.4       187.6       198.0       207.6       216.3       224.3       231.4       237.8       243.5       248.4    
        252.6       256.1       258.9       260.9       262.3       263.0       0.000       0.000       0.000       0.000    
        0.000       0.000       0.000       0.000       0.000       0.000       0.000       0.000       0.000       0.000    
        0.000       0.000       0.000       0.000       0.000       0.000       0.000       0.000       0.000       0.000    
        0.000       0.000       0.000       0.000       0.000       0.000       0.000       0.000       0.000       0.000    
        0.000       0.000       0.000       0.000       0.000       0.000       0.000       0.000       0.000       294.8    
        294.2       293.0       291.2       288.8       285.9       282.3       278.2       273.4       268.1       262.2    
        255.7       248.5       240.8       232.5       223.5       213.9       203.8       192.9       181.5       169.3    
        156.6       143.1       129.0       114.2       98.68       82.45       65.48       47.77       29.28       10.00    
1
              HEAD IN LAYER   2 AT END OF TIME STEP   4 IN STRESS PERIOD    8
  ---------------------------------------------------------------------------

            1           2           3           4           5           6           7           8           9          10
           11          12          13          14          15          16          17          18          19          20
           21          22          23          24          25          26          27          28          29          30
           31          32          33          34          35          36          37          38          39          40
           41          42          43          44          45          46          47          48          49          50
           51          52          53          54          55          56          57          58          59          60
           61          62          63          64          65          66          67          68          69          70
           71          72          73          74          75          76          77          78          79          80
           81          82          83          84          85          86          87          88          89          90
           91          92          93          94          95          96          97          98          99         100
 ........................................................................................................................
   1    187.1       187.1       187.2       187.3       187.4       187.5       187.7       187.8       188.0       188.1    
        188.3       188.5       188.7       188.8       189.0       189.2       189.3       189.5       189.6       189.7    
        189.8       189.9       190.0       190.1       190.2       190.2       190.3       190.3       190.4       190.4    
        190.4       190.5       190.5       190.5       190.6       190.6       190.7       190.7       190.7       190.8    
        190.8       190.9       190.9       190.9       191.0       191.0       191.1       191.1       191.1       191.2    
        191.2       191.3       191.3       191.4       191.4       191.4       191.5       191.5       191.6       191.6    
        191.6       191.7       191.7       191.8       191.8       191.9       191.9       192.0       192.0       192.0    
        192.1       192.1       192.1       192.0       192.0       191.9       191.8       191.7       191.6       191.5    
        191.4       191.2       191.1       190.9       190.7       190.5       190.3       190.1       189.9       189.8    
        189.6       189.4       189.2       189.1       188.9       188.8       188.7       188.6       188.5       188.5    
1
              HEAD IN LAYER   3 AT END OF TIME STEP   4 IN STRESS PERIOD    8
  ---------------------------------------------------------------------------

            1           2           3           4           5           6           7           8           9          10
           11          12          13          14          15          16          17          18          19          20
           21          22          23          24          25          26          27          28          29          30
           31          32          33          34          35          36          37          38          39          40
           41          42          43          44          45          46          47          48          49          50
           51          52          53          54          55          56          57          58          59          60
           61          62          63          64          65          66          67          68          69          70
           71          72          73          74          75          76          77          78          79          80
           81          82          83          84          85          86          87          88          89          90
           91          92          93          94          95          96          97          98          99         100
 ........................................................................................................................
   1    190.1       190.1       190.1       190.1       190.1       190.1       190.1       190.1       190.1       190.1    
        190.1       190.1       190.1       190.1       190.1       190.1       190.1       190.1       190.2       190.2    
        190.2       190.2       190.2       190.2       190.2       190.2       190.2       190.2       190.2       190.2    
        190.2       190.2       190.3       190.3       190.3       190.3       190.3       190.3       190.3       190.3    
        190.3       190.3       190.3       190.3       190.3       190.3       190.3       190.3       190.4       190.4    
        190.4       190.4       190.4       190.4       190.4       190.4       190.4       190.4       190.4       190.4    
        190.4       190.4       190.4       190.4       190.4       190.4       190.4       190.4       190.4       190.4    
        190.4       190.4       190.4       190.4       190.4       190.4       190.4       190.4       190.4       190.4    
        190.4       190.4       190.4       190.4       190.4       190.4       190.4       190.4       190.4       190.4    
        190.4       190.4       190.4       190.4       190.4       190.4       190.4       190.4       190.4       190.4    

 HEAD WILL BE SAVED ON UNIT   51 AT END OF TIME STEP    4, STRESS PERIOD    8

 DRAWDOWN WILL BE SAVED ON UNIT   52 AT END OF TIME STEP    4, STRESS PERIOD    8
1
  VOLUMETRIC BUDGET FOR ENTIRE MODEL AT END OF TIME STEP    4, STRESS PERIOD   8
  ------------------------------------------------------------------------------

     CUMULATIVE VOLUMES      L**3       RATES FOR THIS TIME STEP      L**3/T
     ------------------                 ------------------------

           IN:                                      IN:
           ---                                      ---
             STORAGE =           0.5674               STORAGE =       3.7186E-04
       CONSTANT HEAD =           0.0000         CONSTANT HEAD =           0.0000
               WELLS =           0.0000                 WELLS =           0.0000
            RECHARGE =    89158648.0000              RECHARGE =       37620.0000
    INST. IB STORAGE =           0.7592      INST. IB STORAGE =       4.8760E-04
    DELAY IB STORAGE =           2.0749      DELAY IB STORAGE =       9.1139E-05

            TOTAL IN =    89158648.0000              TOTAL IN =       37620.0000

          OUT:                                     OUT:
          ----                                     ----
             STORAGE =           0.5642               STORAGE =           0.0000
       CONSTANT HEAD =    89158648.0000         CONSTANT HEAD =       37620.0000
               WELLS =           0.0000                 WELLS =           0.0000
            RECHARGE =           0.0000              RECHARGE =           0.0000
    INST. IB STORAGE =           0.7569      INST. IB STORAGE =           0.0000
    DELAY IB STORAGE =           2.0596      DELAY IB STORAGE =       1.5246E-03

           TOTAL OUT =    89158648.0000             TOTAL OUT =       37620.0000

            IN - OUT =           0.0000              IN - OUT =           0.0000

 PERCENT DISCREPANCY =           0.00     PERCENT DISCREPANCY =           0.00






         TIME SUMMARY AT END OF TIME STEP    4 IN STRESS PERIOD    8
                    SECONDS     MINUTES      HOURS       DAYS        YEARS
                    -----------------------------------------------------------
   TIME STEP LENGTH 5.43598E+06  90600.      1510.0      62.916     0.17226    
 STRESS PERIOD TIME 1.53083E+07 2.55139E+05  4252.3      177.18     0.48509    
         TOTAL TIME 2.04766E+08 3.41277E+06  56880.      2370.0      6.4887    
1
 
 SOLVING FOR HEAD 
     1 ITERATIONS FOR TIME STEP   5 IN STRESS PERIOD    8

 MAXIMUM HEAD CHANGE FOR EACH ITERATION:

    HEAD CHANGE   HEAD CHANGE   HEAD CHANGE   HEAD CHANGE   HEAD CHANGE
  LAYER,ROW,COL LAYER,ROW,COL LAYER,ROW,COL LAYER,ROW,COL LAYER,ROW,COL
 ----------------------------------------------------------------------
    -0.8270E-04
  (  3,  1, 29)


 OUTPUT CONTROL FOR STRESS PERIOD    8   TIME STEP    5
    SAVE HEAD FOR ALL LAYERS
    SAVE DRAWDOWN FOR ALL LAYERS
    SAVE BUDGET
    PRINT HEAD FOR ALL LAYERS
    PRINT BUDGET
1
              HEAD IN LAYER   1 AT END OF TIME STEP   5 IN STRESS PERIOD    8
  ---------------------------------------------------------------------------

            1           2           3           4           5           6           7           8           9          10
           11          12          13          14          15          16          17          18          19          20
           21          22          23          24          25          26          27          28          29          30
           31          32          33          34          35          36          37          38          39          40
           41          42          43          44          45          46          47          48          49          50
           51          52          53          54          55          56          57          58          59          60
           61          62          63          64          65          66          67          68          69          70
           71          72          73          74          75          76          77          78          79          80
           81          82          83          84          85          86          87          88          89          90
           91          92          93          94          95          96          97          98          99         100
 ........................................................................................................................
   1    10.00       31.68       52.10       71.32       89.40       106.4       122.3       137.3       151.2       164.3    
        176.4       187.6       198.0       207.6       216.3       224.3       231.4       237.8       243.5       248.4    
        252.6       256.1       258.9       260.9       262.3       263.0       0.000       0.000       0.000       0.000    
        0.000       0.000       0.000       0.000       0.000       0.000       0.000       0.000       0.000       0.000    
        0.000       0.000       0.000       0.000       0.000       0.000       0.000       0.000       0.000       0.000    
        0.000       0.000       0.000       0.000       0.000       0.000       0.000       0.000       0.000       0.000    
        0.000       0.000       0.000       0.000       0.000       0.000       0.000       0.000       0.000       294.8    
        294.2       293.0       291.2       288.8       285.9       282.3       278.2       273.4       268.1       262.2    
        255.7       248.5       240.8       232.5       223.5       213.9       203.8       192.9       181.5       169.3    
        156.6       143.1       129.0       114.2       98.68       82.45       65.48       47.77       29.28       10.00    
1
              HEAD IN LAYER   2 AT END OF TIME STEP   5 IN STRESS PERIOD    8
  ---------------------------------------------------------------------------

            1           2           3           4           5           6           7           8           9          10
           11          12          13          14          15          16          17          18          19          20
           21          22          23          24          25          26          27          28          29          30
           31          32          33          34          35          36          37          38          39          40
           41          42          43          44          45          46          47          48          49          50
           51          52          53          54          55          56          57          58          59          60
           61          62          63          64          65          66          67          68          69          70
           71          72          73          74          75          76          77          78          79          80
           81          82          83          84          85          86          87          88          89          90
           91          92          93          94          95          96          97          98          99         100
 ........................................................................................................................
   1    187.1       187.1       187.2       187.3       187.4       187.5       187.7       187.8       188.0       188.1    
        188.3       188.5       188.7       188.8       189.0       189.2       189.3       189.5       189.6       189.7    
        189.8       189.9       190.0       190.1       190.2       190.2       190.3       190.3       190.4       190.4    
        190.4       190.5       190.5       190.5       190.6       190.6       190.7       190.7       190.7       190.8    
        190.8       190.9       190.9       190.9       191.0       191.0       191.1       191.1       191.1       191.2    
        191.2       191.3       191.3       191.4       191.4       191.4       191.5       191.5       191.6       191.6    
        191.6       191.7       191.7       191.8       191.8       191.9       191.9       192.0       192.0       192.0    
        192.1       192.1       192.1       192.0       192.0       191.9       191.8       191.7       191.6       191.5    
        191.4       191.2       191.1       190.9       190.7       190.5       190.3       190.1       189.9       189.8    
        189.6       189.4       189.2       189.1       188.9       188.8       188.7       188.6       188.5       188.5    
1
              HEAD IN LAYER   3 AT END OF TIME STEP   5 IN STRESS PERIOD    8
  ---------------------------------------------------------------------------

            1           2           3           4           5           6           7           8           9          10
           11          12          13          14          15          16          17          18          19          20
           21          22          23          24          25          26          27          28          29          30
           31          32          33          34          35          36          37          38          39          40
           41          42          43          44          45          46          47          48          49          50
           51          52          53          54          55          56          57          58          59          60
           61          62          63          64          65          66          67          68          69          70
           71          72          73          74          75          76          77          78          79          80
           81          82          83          84          85          86          87          88          89          90
           91          92          93          94          95          96          97          98          99         100
 ........................................................................................................................
   1    190.1       190.1       190.1       190.1       190.1       190.1       190.1       190.1       190.1       190.1    
        190.1       190.1       190.1       190.1       190.1       190.1       190.1       190.1       190.2       190.2    
        190.2       190.2       190.2       190.2       190.2       190.2       190.2       190.2       190.2       190.2    
        190.2       190.2       190.3       190.3       190.3       190.3       190.3       190.3       190.3       190.3    
        190.3       190.3       190.3       190.3       190.3       190.3       190.3       190.3       190.4       190.4    
        190.4       190.4       190.4       190.4       190.4       190.4       190.4       190.4       190.4       190.4    
        190.4       190.4       190.4       190.4       190.4       190.4       190.4       190.4       190.4       190.4    
        190.4       190.4       190.4       190.4       190.4       190.4       190.4       190.4       190.4       190.4    
        190.4       190.4       190.4       190.4       190.4       190.4       190.4       190.4       190.4       190.4    
        190.4       190.4       190.4       190.4       190.4       190.4       190.4       190.4       190.4       190.4    

 HEAD WILL BE SAVED ON UNIT   51 AT END OF TIME STEP    5, STRESS PERIOD    8

 DRAWDOWN WILL BE SAVED ON UNIT   52 AT END OF TIME STEP    5, STRESS PERIOD    8
1
  VOLUMETRIC BUDGET FOR ENTIRE MODEL AT END OF TIME STEP    5, STRESS PERIOD   8
  ------------------------------------------------------------------------------

     CUMULATIVE VOLUMES      L**3       RATES FOR THIS TIME STEP      L**3/T
     ------------------                 ------------------------

           IN:                                      IN:
           ---                                      ---
             STORAGE =           0.5777               STORAGE =       1.2519E-04
       CONSTANT HEAD =           0.0000         CONSTANT HEAD =           0.0000
               WELLS =           0.0000                 WELLS =           0.0000
            RECHARGE =    92235640.0000              RECHARGE =       37620.0000
    INST. IB STORAGE =           0.7760      INST. IB STORAGE =       2.0503E-04
    DELAY IB STORAGE =           2.1068      DELAY IB STORAGE =       3.8920E-04

            TOTAL IN =    92235640.0000              TOTAL IN =       37620.0000

          OUT:                                     OUT:
          ----                                     ----
             STORAGE =           0.5689               STORAGE =       5.7460E-05
       CONSTANT HEAD =    92235640.0000         CONSTANT HEAD =       37620.0000
               WELLS =           0.0000                 WELLS =           0.0000
            RECHARGE =           0.0000              RECHARGE =           0.0000
    INST. IB STORAGE =           0.7571      INST. IB STORAGE =       1.4925E-06
    DELAY IB STORAGE =           2.1102      DELAY IB STORAGE =       6.1880E-04

           TOTAL OUT =    92235640.0000             TOTAL OUT =       37620.0000

            IN - OUT =           0.0000              IN - OUT =           0.0000

 PERCENT DISCREPANCY =           0.00     PERCENT DISCREPANCY =           0.00






         TIME SUMMARY AT END OF TIME STEP    5 IN STRESS PERIOD    8
                    SECONDS     MINUTES      HOURS       DAYS        YEARS
                    -----------------------------------------------------------
   TIME STEP LENGTH 7.06678E+06 1.17780E+05  1963.0      81.791     0.22393    
 STRESS PERIOD TIME 2.23751E+07 3.72919E+05  6215.3      258.97     0.70902    
         TOTAL TIME 2.11833E+08 3.53055E+06  58843.      2451.8      6.7126    
1
 
 SOLVING FOR HEAD 
     2 ITERATIONS FOR TIME STEP   6 IN STRESS PERIOD    8

 MAXIMUM HEAD CHANGE FOR EACH ITERATION:

    HEAD CHANGE   HEAD CHANGE   HEAD CHANGE   HEAD CHANGE   HEAD CHANGE
  LAYER,ROW,COL LAYER,ROW,COL LAYER,ROW,COL LAYER,ROW,COL LAYER,ROW,COL
 ----------------------------------------------------------------------
     0.1370E-03    0.5582E-04
  (  3,  1,  8) (  2,  1, 38)


 OUTPUT CONTROL FOR STRESS PERIOD    8   TIME STEP    6
    SAVE HEAD FOR ALL LAYERS
    SAVE DRAWDOWN FOR ALL LAYERS
    SAVE BUDGET
    PRINT HEAD FOR ALL LAYERS
    PRINT BUDGET
1
              HEAD IN LAYER   1 AT END OF TIME STEP   6 IN STRESS PERIOD    8
  ---------------------------------------------------------------------------

            1           2           3           4           5           6           7           8           9          10
           11          12          13          14          15          16          17          18          19          20
           21          22          23          24          25          26          27          28          29          30
           31          32          33          34          35          36          37          38          39          40
           41          42          43          44          45          46          47          48          49          50
           51          52          53          54          55          56          57          58          59          60
           61          62          63          64          65          66          67          68          69          70
           71          72          73          74          75          76          77          78          79          80
           81          82          83          84          85          86          87          88          89          90
           91          92          93          94          95          96          97          98          99         100
 ........................................................................................................................
   1    10.00       31.68       52.10       71.32       89.40       106.4       122.3       137.3       151.2       164.3    
        176.4       187.6       198.0       207.6       216.3       224.3       231.4       237.8       243.5       248.4    
        252.6       256.1       258.9       260.9       262.3       263.0       0.000       0.000       0.000       0.000    
        0.000       0.000       0.000       0.000       0.000       0.000       0.000       0.000       0.000       0.000    
        0.000       0.000       0.000       0.000       0.000       0.000       0.000       0.000       0.000       0.000    
        0.000       0.000       0.000       0.000       0.000       0.000       0.000       0.000       0.000       0.000    
        0.000       0.000       0.000       0.000       0.000       0.000       0.000       0.000       0.000       294.8    
        294.2       293.0       291.2       288.8       285.9       282.3       278.2       273.4       268.1       262.2    
        255.7       248.5       240.8       232.5       223.5       213.9       203.8       192.9       181.5       169.3    
        156.6       143.1       129.0       114.2       98.68       82.45       65.48       47.77       29.28       10.00    
1
              HEAD IN LAYER   2 AT END OF TIME STEP   6 IN STRESS PERIOD    8
  ---------------------------------------------------------------------------

            1           2           3           4           5           6           7           8           9          10
           11          12          13          14          15          16          17          18          19          20
           21          22          23          24          25          26          27          28          29          30
           31          32          33          34          35          36          37          38          39          40
           41          42          43          44          45          46          47          48          49          50
           51          52          53          54          55          56          57          58          59          60
           61          62          63          64          65          66          67          68          69          70
           71          72          73          74          75          76          77          78          79          80
           81          82          83          84          85          86          87          88          89          90
           91          92          93          94          95          96          97          98          99         100
 ........................................................................................................................
   1    187.1       187.1       187.2       187.3       187.4       187.5       187.7       187.8       188.0       188.1    
        188.3       188.5       188.7       188.8       189.0       189.2       189.3       189.5       189.6       189.7    
        189.8       189.9       190.0       190.1       190.2       190.2       190.3       190.3       190.4       190.4    
        190.4       190.5       190.5       190.5       190.6       190.6       190.7       190.7       190.7       190.8    
        190.8       190.9       190.9       190.9       191.0       191.0       191.1       191.1       191.1       191.2    
        191.2       191.3       191.3       191.4       191.4       191.4       191.5       191.5       191.6       191.6    
        191.6       191.7       191.7       191.8       191.8       191.9       191.9       192.0       192.0       192.0    
        192.1       192.1       192.1       192.0       192.0       191.9       191.8       191.7       191.6       191.5    
        191.4       191.2       191.1       190.9       190.7       190.5       190.3       190.1       189.9       189.8    
        189.6       189.4       189.2       189.1       188.9       188.8       188.7       188.6       188.5       188.5    
1
              HEAD IN LAYER   3 AT END OF TIME STEP   6 IN STRESS PERIOD    8
  ---------------------------------------------------------------------------

            1           2           3           4           5           6           7           8           9          10
           11          12          13          14          15          16          17          18          19          20
           21          22          23          24          25          26          27          28          29          30
           31          32          33          34          35          36          37          38          39          40
           41          42          43          44          45          46          47          48          49          50
           51          52          53          54          55          56          57          58          59          60
           61          62          63          64          65          66          67          68          69          70
           71          72          73          74          75          76          77          78          79          80
           81          82          83          84          85          86          87          88          89          90
           91          92          93          94          95          96          97          98          99         100
 ........................................................................................................................
   1    190.1       190.1       190.1       190.1       190.1       190.1       190.1       190.1       190.1       190.1    
        190.1       190.1       190.1       190.1       190.1       190.1       190.1       190.2       190.2       190.2    
        190.2       190.2       190.2       190.2       190.2       190.2       190.2       190.2       190.2       190.2    
        190.2       190.2       190.3       190.3       190.3       190.3       190.3       190.3       190.3       190.3    
        190.3       190.3       190.3       190.3       190.3       190.3       190.3       190.3       190.4       190.4    
        190.4       190.4       190.4       190.4       190.4       190.4       190.4       190.4       190.4       190.4    
        190.4       190.4       190.4       190.4       190.4       190.4       190.4       190.4       190.4       190.4    
        190.4       190.4       190.4       190.4       190.4       190.4       190.4       190.4       190.4       190.4    
        190.4       190.4       190.4       190.4       190.4       190.4       190.4       190.4       190.4       190.4    
        190.4       190.4       190.4       190.4       190.4       190.4       190.4       190.4       190.4       190.4    

 HEAD WILL BE SAVED ON UNIT   51 AT END OF TIME STEP    6, STRESS PERIOD    8

 DRAWDOWN WILL BE SAVED ON UNIT   52 AT END OF TIME STEP    6, STRESS PERIOD    8
1
  VOLUMETRIC BUDGET FOR ENTIRE MODEL AT END OF TIME STEP    6, STRESS PERIOD   8
  ------------------------------------------------------------------------------

     CUMULATIVE VOLUMES      L**3       RATES FOR THIS TIME STEP      L**3/T
     ------------------                 ------------------------

           IN:                                      IN:
           ---                                      ---
             STORAGE =           0.5818               STORAGE =       3.8675E-05
       CONSTANT HEAD =           0.0000         CONSTANT HEAD =           0.0000
               WELLS =           0.0000                 WELLS =           0.0000
            RECHARGE =    96235728.0000              RECHARGE =       37620.0000
    INST. IB STORAGE =           0.7761      INST. IB STORAGE =       8.6103E-07
    DELAY IB STORAGE =           2.2095      DELAY IB STORAGE =       9.6680E-04

            TOTAL IN =    96235728.0000              TOTAL IN =       37620.0000

          OUT:                                     OUT:
          ----                                     ----
             STORAGE =           0.5923               STORAGE =       2.2059E-04
       CONSTANT HEAD =    96235728.0000         CONSTANT HEAD =       37620.0000
               WELLS =           0.0000                 WELLS =           0.0000
            RECHARGE =           0.0000              RECHARGE =           0.0000
    INST. IB STORAGE =           0.7897      INST. IB STORAGE =       3.0682E-04
    DELAY IB STORAGE =           2.1147      DELAY IB STORAGE =       4.1945E-05

           TOTAL OUT =    96235728.0000             TOTAL OUT =       37620.0000

            IN - OUT =           0.0000              IN - OUT =           0.0000

 PERCENT DISCREPANCY =           0.00     PERCENT DISCREPANCY =           0.00






         TIME SUMMARY AT END OF TIME STEP    6 IN STRESS PERIOD    8
                    SECONDS     MINUTES      HOURS       DAYS        YEARS
                    -----------------------------------------------------------
   TIME STEP LENGTH 9.18681E+06 1.53113E+05  2551.9      106.33     0.29111    
 STRESS PERIOD TIME 3.15619E+07 5.26032E+05  8767.2      365.30      1.0001    
         TOTAL TIME 2.21020E+08 3.68366E+06  61394.      2558.1      7.0037    
1

                               VOLUMETRIC BUDGET FOR SYSTEMS OF DELAY INTERBEDS
                                          AT END OF TIME STEP  6 IN STRESS PERIOD  8

          |   C U M U L A T I V E   V O L U M E S   L**3           | R A T E S   F O R  T H I S  T I M E  S T E P   L**3/T  |
   SYSTEM |    CHANGE IN     BOUNDARY                    PERCENT   |    CHANGE IN     BOUNDARY                    PERCENT   |
   NUMBER |     STORAGE        FLOW           SUM      DISCREPANCY |     STORAGE        FLOW           SUM      DISCREPANCY |
  --------|--------------------------------------------------------|--------------------------------------------------------|
      1    0.27782E-01   -0.27782E-01     0.0000         0.0000        0.29489E-03   -0.29489E-03     0.0000         0.0000    
      2    0.67074E-01   -0.67074E-01   -0.10431E-06   -0.15551E-03    0.62996E-03   -0.62996E-03   -0.58208E-10   -0.92399E-05
  --------|--------------------------------------------------------|--------------------------------------------------------|
 TOTALS:    0.94857E-01   -0.94857E-01   -0.10431E-06   -0.10996E-03    0.92485E-03   -0.92485E-03   -0.11642E-09   -0.12587E-04
1
                            STRESS PERIOD NO.    9, LENGTH =   365.3000    
                            -----------------------------------------------

                              NUMBER OF TIME STEPS =     6

                               MULTIPLIER FOR DELT =     1.300

                            INITIAL TIME STEP SIZE =   28.63744    

 WELL NO.  LAYER   ROW   COL   STRESS RATE         
 --------------------------------------------------
      1      1      1     50     -0.1532E+06

      1 WELL 

 REUSING RECH FROM LAST STRESS PERIOD
 
 SOLVING FOR HEAD 

     2 ITERATIONS FOR TIME STEP   1 IN STRESS PERIOD    9

 OUTPUT CONTROL FOR STRESS PERIOD    9   TIME STEP    1
    SAVE HEAD FOR ALL LAYERS
    SAVE DRAWDOWN FOR ALL LAYERS
    SAVE BUDGET
    PRINT HEAD FOR ALL LAYERS
    PRINT BUDGET
1
              HEAD IN LAYER   1 AT END OF TIME STEP   1 IN STRESS PERIOD    9
  ---------------------------------------------------------------------------

            1           2           3           4           5           6           7           8           9          10
           11          12          13          14          15          16          17          18          19          20
           21          22          23          24          25          26          27          28          29          30
           31          32          33          34          35          36          37          38          39          40
           41          42          43          44          45          46          47          48          49          50
           51          52          53          54          55          56          57          58          59          60
           61          62          63          64          65          66          67          68          69          70
           71          72          73          74          75          76          77          78          79          80
           81          82          83          84          85          86          87          88          89          90
           91          92          93          94          95          96          97          98          99         100
 ........................................................................................................................
   1    10.00       31.68       52.10       71.32       89.40       106.4       122.3       137.3       151.2       164.3    
        176.4       187.6       198.0       207.6       216.3       224.3       231.4       237.8       243.5       248.4    
        252.6       256.1       258.9       260.9       262.3       263.0       0.000       0.000       0.000       0.000    
        0.000       0.000       0.000       0.000       0.000       0.000       0.000       0.000       0.000       0.000    
        0.000       0.000       0.000       0.000       0.000       0.000       0.000       0.000       0.000       0.000    
        0.000       0.000       0.000       0.000       0.000       0.000       0.000       0.000       0.000       0.000    
        0.000       0.000       0.000       0.000       0.000       0.000       0.000       0.000       0.000       294.8    
        294.2       293.0       291.2       288.8       285.9       282.3       278.2       273.4       268.1       262.2    
        255.7       248.5       240.8       232.5       223.5       213.9       203.8       192.9       181.5       169.3    
        156.6       143.1       129.0       114.2       98.68       82.45       65.48       47.77       29.28       10.00    
1
              HEAD IN LAYER   2 AT END OF TIME STEP   1 IN STRESS PERIOD    9
  ---------------------------------------------------------------------------

            1           2           3           4           5           6           7           8           9          10
           11          12          13          14          15          16          17          18          19          20
           21          22          23          24          25          26          27          28          29          30
           31          32          33          34          35          36          37          38          39          40
           41          42          43          44          45          46          47          48          49          50
           51          52          53          54          55          56          57          58          59          60
           61          62          63          64          65          66          67          68          69          70
           71          72          73          74          75          76          77          78          79          80
           81          82          83          84          85          86          87          88          89          90
           91          92          93          94          95          96          97          98          99         100
 ........................................................................................................................
   1    187.1       187.1       187.2       187.3       187.4       187.5       187.7       187.8       188.0       188.1    
        188.3       188.5       188.7       188.8       189.0       189.2       189.3       189.5       189.6       189.7    
        189.8       189.9       190.0       190.1       190.2       190.2       190.3       190.3       190.4       190.4    
        190.4       190.5       190.5       190.5       190.6       190.6       190.7       190.7       190.7       190.8    
        190.8       190.9       190.9       190.9       191.0       191.0       191.1       191.1       191.1       191.2    
        191.2       191.3       191.3       191.4       191.4       191.4       191.5       191.5       191.6       191.6    
        191.6       191.7       191.7       191.8       191.8       191.9       191.9       192.0       192.0       192.0    
        192.1       192.1       192.1       192.0       192.0       191.9       191.8       191.7       191.6       191.5    
        191.4       191.2       191.1       190.9       190.7       190.5       190.3       190.1       189.9       189.8    
        189.6       189.4       189.2       189.1       188.9       188.8       188.7       188.6       188.5       188.5    
1
              HEAD IN LAYER   3 AT END OF TIME STEP   1 IN STRESS PERIOD    9
  ---------------------------------------------------------------------------

            1           2           3           4           5           6           7           8           9          10
           11          12          13          14          15          16          17          18          19          20
           21          22          23          24          25          26          27          28          29          30
           31          32          33          34          35          36          37          38          39          40
           41          42          43          44          45          46          47          48          49          50
           51          52          53          54          55          56          57          58          59          60
           61          62          63          64          65          66          67          68          69          70
           71          72          73          74          75          76          77          78          79          80
           81          82          83          84          85          86          87          88          89          90
           91          92          93          94          95          96          97          98          99         100
 ........................................................................................................................
   1    190.1       190.1       190.1       190.1       190.1       190.1       190.1       190.1       190.1       190.1    
        190.1       190.1       190.1       190.1       190.1       190.1       190.1       190.1       190.2       190.2    
        190.2       190.2       190.2       190.2       190.2       190.2       190.2       190.2       190.2       190.2    
        190.2       190.2       190.3       190.3       190.3       190.3       190.3       190.3       190.3       190.3    
        190.3       190.3       190.3       190.3       190.3       190.3       190.3       190.3       190.4       190.4    
        190.4       190.4       190.4       190.4       190.4       190.4       190.4       190.4       190.4       190.4    
        190.4       190.4       190.4       190.4       190.4       190.4       190.4       190.4       190.4       190.4    
        190.4       190.4       190.4       190.4       190.4       190.4       190.4       190.4       190.4       190.4    
        190.4       190.4       190.4       190.4       190.4       190.4       190.4       190.4       190.4       190.4    
        190.4       190.4       190.4       190.4       190.4       190.4       190.4       190.4       190.4       190.4    

 HEAD WILL BE SAVED ON UNIT   51 AT END OF TIME STEP    1, STRESS PERIOD    9

 DRAWDOWN WILL BE SAVED ON UNIT   52 AT END OF TIME STEP    1, STRESS PERIOD    9
1
  VOLUMETRIC BUDGET FOR ENTIRE MODEL AT END OF TIME STEP    1, STRESS PERIOD   9
  ------------------------------------------------------------------------------

     CUMULATIVE VOLUMES      L**3       RATES FOR THIS TIME STEP      L**3/T
     ------------------                 ------------------------

           IN:                                      IN:
           ---                                      ---
             STORAGE =           0.6219               STORAGE =       1.4022E-03
       CONSTANT HEAD =           0.0000         CONSTANT HEAD =           0.0000
               WELLS =           0.0000                 WELLS =           0.0000
            RECHARGE =    97313072.0000              RECHARGE =       37620.0000
    INST. IB STORAGE =           0.8392      INST. IB STORAGE =       2.2048E-03
    DELAY IB STORAGE =           2.2205      DELAY IB STORAGE =       3.8141E-04

            TOTAL IN =    97313072.0000              TOTAL IN =       37620.0039

          OUT:                                     OUT:
          ----                                     ----
             STORAGE =           0.5926               STORAGE =       1.0257E-05
       CONSTANT HEAD =    97313072.0000         CONSTANT HEAD =       37620.0000
               WELLS =           0.0000                 WELLS =           0.0000
            RECHARGE =           0.0000              RECHARGE =           0.0000
    INST. IB STORAGE =           0.7897      INST. IB STORAGE =       2.6641E-07
    DELAY IB STORAGE =           2.2250      DELAY IB STORAGE =       3.8502E-03

           TOTAL OUT =    97313072.0000             TOTAL OUT =       37620.0039

            IN - OUT =           0.0000              IN - OUT =           0.0000

 PERCENT DISCREPANCY =           0.00     PERCENT DISCREPANCY =           0.00






         TIME SUMMARY AT END OF TIME STEP    1 IN STRESS PERIOD    9
                    SECONDS     MINUTES      HOURS       DAYS        YEARS
                    -----------------------------------------------------------
   TIME STEP LENGTH 2.47427E+06  41238.      687.30      28.637     7.84050E-02
 STRESS PERIOD TIME 2.47427E+06  41238.      687.30      28.637     7.84050E-02
         TOTAL TIME 2.23494E+08 3.72490E+06  62082.      2586.7      7.0821    
1
 
 SOLVING FOR HEAD 
     1 ITERATIONS FOR TIME STEP   2 IN STRESS PERIOD    9

 OUTPUT CONTROL FOR STRESS PERIOD    9   TIME STEP    2
    SAVE HEAD FOR ALL LAYERS
    SAVE DRAWDOWN FOR ALL LAYERS
    SAVE BUDGET
    PRINT HEAD FOR ALL LAYERS
    PRINT BUDGET
1
              HEAD IN LAYER   1 AT END OF TIME STEP   2 IN STRESS PERIOD    9
  ---------------------------------------------------------------------------

            1           2           3           4           5           6           7           8           9          10
           11          12          13          14          15          16          17          18          19          20
           21          22          23          24          25          26          27          28          29          30
           31          32          33          34          35          36          37          38          39          40
           41          42          43          44          45          46          47          48          49          50
           51          52          53          54          55          56          57          58          59          60
           61          62          63          64          65          66          67          68          69          70
           71          72          73          74          75          76          77          78          79          80
           81          82          83          84          85          86          87          88          89          90
           91          92          93          94          95          96          97          98          99         100
 ........................................................................................................................
   1    10.00       31.68       52.10       71.32       89.40       106.4       122.3       137.3       151.2       164.3    
        176.4       187.6       198.0       207.6       216.3       224.3       231.4       237.8       243.5       248.4    
        252.6       256.1       258.9       260.9       262.3       263.0       0.000       0.000       0.000       0.000    
        0.000       0.000       0.000       0.000       0.000       0.000       0.000       0.000       0.000       0.000    
        0.000       0.000       0.000       0.000       0.000       0.000       0.000       0.000       0.000       0.000    
        0.000       0.000       0.000       0.000       0.000       0.000       0.000       0.000       0.000       0.000    
        0.000       0.000       0.000       0.000       0.000       0.000       0.000       0.000       0.000       294.8    
        294.2       293.0       291.2       288.8       285.9       282.3       278.2       273.4       268.1       262.2    
        255.7       248.5       240.8       232.5       223.5       213.9       203.8       192.9       181.5       169.3    
        156.6       143.1       129.0       114.2       98.68       82.45       65.48       47.77       29.28       10.00    
1
              HEAD IN LAYER   2 AT END OF TIME STEP   2 IN STRESS PERIOD    9
  ---------------------------------------------------------------------------

            1           2           3           4           5           6           7           8           9          10
           11          12          13          14          15          16          17          18          19          20
           21          22          23          24          25          26          27          28          29          30
           31          32          33          34          35          36          37          38          39          40
           41          42          43          44          45          46          47          48          49          50
           51          52          53          54          55          56          57          58          59          60
           61          62          63          64          65          66          67          68          69          70
           71          72          73          74          75          76          77          78          79          80
           81          82          83          84          85          86          87          88          89          90
           91          92          93          94          95          96          97          98          99         100
 ........................................................................................................................
   1    187.1       187.1       187.2       187.3       187.4       187.5       187.7       187.8       188.0       188.1    
        188.3       188.5       188.7       188.8       189.0       189.2       189.3       189.5       189.6       189.7    
        189.8       189.9       190.0       190.1       190.2       190.2       190.3       190.3       190.4       190.4    
        190.4       190.5       190.5       190.5       190.6       190.6       190.7       190.7       190.7       190.8    
        190.8       190.9       190.9       190.9       191.0       191.0       191.1       191.1       191.1       191.2    
        191.2       191.3       191.3       191.4       191.4       191.4       191.5       191.5       191.6       191.6    
        191.6       191.7       191.7       191.8       191.8       191.9       191.9       192.0       192.0       192.0    
        192.1       192.1       192.1       192.0       192.0       191.9       191.8       191.7       191.6       191.5    
        191.4       191.2       191.1       190.9       190.7       190.5       190.3       190.1       189.9       189.8    
        189.6       189.4       189.2       189.1       188.9       188.8       188.7       188.6       188.5       188.5    
1
              HEAD IN LAYER   3 AT END OF TIME STEP   2 IN STRESS PERIOD    9
  ---------------------------------------------------------------------------

            1           2           3           4           5           6           7           8           9          10
           11          12          13          14          15          16          17          18          19          20
           21          22          23          24          25          26          27          28          29          30
           31          32          33          34          35          36          37          38          39          40
           41          42          43          44          45          46          47          48          49          50
           51          52          53          54          55          56          57          58          59          60
           61          62          63          64          65          66          67          68          69          70
           71          72          73          74          75          76          77          78          79          80
           81          82          83          84          85          86          87          88          89          90
           91          92          93          94          95          96          97          98          99         100
 ........................................................................................................................
   1    190.1       190.1       190.1       190.1       190.1       190.1       190.1       190.1       190.1       190.1    
        190.1       190.1       190.1       190.1       190.1       190.1       190.1       190.1       190.2       190.2    
        190.2       190.2       190.2       190.2       190.2       190.2       190.2       190.2       190.2       190.2    
        190.2       190.2       190.3       190.3       190.3       190.3       190.3       190.3       190.3       190.3    
        190.3       190.3       190.3       190.3       190.3       190.3       190.3       190.3       190.4       190.4    
        190.4       190.4       190.4       190.4       190.4       190.4       190.4       190.4       190.4       190.4    
        190.4       190.4       190.4       190.4       190.4       190.4       190.4       190.4       190.4       190.4    
        190.4       190.4       190.4       190.4       190.4       190.4       190.4       190.4       190.4       190.4    
        190.4       190.4       190.4       190.4       190.4       190.4       190.4       190.4       190.4       190.4    
        190.4       190.4       190.4       190.4       190.4       190.4       190.4       190.4       190.4       190.4    

 HEAD WILL BE SAVED ON UNIT   51 AT END OF TIME STEP    2, STRESS PERIOD    9

 DRAWDOWN WILL BE SAVED ON UNIT   52 AT END OF TIME STEP    2, STRESS PERIOD    9
1
  VOLUMETRIC BUDGET FOR ENTIRE MODEL AT END OF TIME STEP    2, STRESS PERIOD   9
  ------------------------------------------------------------------------------

     CUMULATIVE VOLUMES      L**3       RATES FOR THIS TIME STEP      L**3/T
     ------------------                 ------------------------

           IN:                                      IN:
           ---                                      ---
             STORAGE =           0.6268               STORAGE =       1.3142E-04
       CONSTANT HEAD =           0.0000         CONSTANT HEAD =           0.0000
               WELLS =           0.0000                 WELLS =           0.0000
            RECHARGE =    98713616.0000              RECHARGE =       37620.0000
    INST. IB STORAGE =           0.8430      INST. IB STORAGE =       1.0267E-04
    DELAY IB STORAGE =           2.2638      DELAY IB STORAGE =       1.1644E-03

            TOTAL IN =    98713616.0000              TOTAL IN =       37620.0000

          OUT:                                     OUT:
          ----                                     ----
             STORAGE =           0.6096               STORAGE =       4.5617E-04
       CONSTANT HEAD =    98713616.0000         CONSTANT HEAD =       37620.0000
               WELLS =           0.0000                 WELLS =           0.0000
            RECHARGE =           0.0000              RECHARGE =           0.0000
    INST. IB STORAGE =           0.8071      INST. IB STORAGE =       4.6848E-04
    DELAY IB STORAGE =           2.2330      DELAY IB STORAGE =       2.1580E-04

           TOTAL OUT =    98713616.0000             TOTAL OUT =       37620.0000

            IN - OUT =           0.0000              IN - OUT =           0.0000

 PERCENT DISCREPANCY =           0.00     PERCENT DISCREPANCY =           0.00






         TIME SUMMARY AT END OF TIME STEP    2 IN STRESS PERIOD    9
                    SECONDS     MINUTES      HOURS       DAYS        YEARS
                    -----------------------------------------------------------
   TIME STEP LENGTH 3.21656E+06  53609.      893.49      37.229     0.10193    
 STRESS PERIOD TIME 5.69083E+06  94847.      1580.8      65.866     0.18033    
         TOTAL TIME 2.26711E+08 3.77851E+06  62975.      2624.0      7.1840    
1
 
 SOLVING FOR HEAD 
     2 ITERATIONS FOR TIME STEP   3 IN STRESS PERIOD    9

 OUTPUT CONTROL FOR STRESS PERIOD    9   TIME STEP    3
    SAVE HEAD FOR ALL LAYERS
    SAVE DRAWDOWN FOR ALL LAYERS
    SAVE BUDGET
    PRINT HEAD FOR ALL LAYERS
    PRINT BUDGET
1
              HEAD IN LAYER   1 AT END OF TIME STEP   3 IN STRESS PERIOD    9
  ---------------------------------------------------------------------------

            1           2           3           4           5           6           7           8           9          10
           11          12          13          14          15          16          17          18          19          20
           21          22          23          24          25          26          27          28          29          30
           31          32          33          34          35          36          37          38          39          40
           41          42          43          44          45          46          47          48          49          50
           51          52          53          54          55          56          57          58          59          60
           61          62          63          64          65          66          67          68          69          70
           71          72          73          74          75          76          77          78          79          80
           81          82          83          84          85          86          87          88          89          90
           91          92          93          94          95          96          97          98          99         100
 ........................................................................................................................
   1    10.00       31.68       52.10       71.32       89.40       106.4       122.3       137.3       151.2       164.3    
        176.4       187.6       198.0       207.6       216.3       224.3       231.4       237.8       243.5       248.4    
        252.6       256.1       258.9       260.9       262.3       263.0       0.000       0.000       0.000       0.000    
        0.000       0.000       0.000       0.000       0.000       0.000       0.000       0.000       0.000       0.000    
        0.000       0.000       0.000       0.000       0.000       0.000       0.000       0.000       0.000       0.000    
        0.000       0.000       0.000       0.000       0.000       0.000       0.000       0.000       0.000       0.000    
        0.000       0.000       0.000       0.000       0.000       0.000       0.000       0.000       0.000       294.8    
        294.2       293.0       291.2       288.8       285.9       282.3       278.2       273.4       268.1       262.2    
        255.7       248.5       240.8       232.5       223.5       213.9       203.8       192.9       181.5       169.3    
        156.6       143.1       129.0       114.2       98.68       82.45       65.48       47.77       29.28       10.00    
1
              HEAD IN LAYER   2 AT END OF TIME STEP   3 IN STRESS PERIOD    9
  ---------------------------------------------------------------------------

            1           2           3           4           5           6           7           8           9          10
           11          12          13          14          15          16          17          18          19          20
           21          22          23          24          25          26          27          28          29          30
           31          32          33          34          35          36          37          38          39          40
           41          42          43          44          45          46          47          48          49          50
           51          52          53          54          55          56          57          58          59          60
           61          62          63          64          65          66          67          68          69          70
           71          72          73          74          75          76          77          78          79          80
           81          82          83          84          85          86          87          88          89          90
           91          92          93          94          95          96          97          98          99         100
 ........................................................................................................................
   1    187.1       187.1       187.2       187.3       187.4       187.5       187.7       187.8       188.0       188.1    
        188.3       188.5       188.7       188.8       189.0       189.2       189.3       189.5       189.6       189.7    
        189.8       189.9       190.0       190.1       190.2       190.2       190.3       190.3       190.4       190.4    
        190.4       190.5       190.5       190.5       190.6       190.6       190.7       190.7       190.7       190.8    
        190.8       190.9       190.9       190.9       191.0       191.0       191.1       191.1       191.1       191.2    
        191.2       191.3       191.3       191.4       191.4       191.4       191.5       191.5       191.6       191.6    
        191.6       191.7       191.7       191.8       191.8       191.9       191.9       192.0       192.0       192.0    
        192.1       192.1       192.1       192.0       192.0       191.9       191.8       191.7       191.6       191.5    
        191.4       191.2       191.1       190.9       190.7       190.5       190.3       190.1       189.9       189.8    
        189.6       189.4       189.2       189.1       188.9       188.8       188.7       188.6       188.5       188.5    
1
              HEAD IN LAYER   3 AT END OF TIME STEP   3 IN STRESS PERIOD    9
  ---------------------------------------------------------------------------

            1           2           3           4           5           6           7           8           9          10
           11          12          13          14          15          16          17          18          19          20
           21          22          23          24          25          26          27          28          29          30
           31          32          33          34          35          36          37          38          39          40
           41          42          43          44          45          46          47          48          49          50
           51          52          53          54          55          56          57          58          59          60
           61          62          63          64          65          66          67          68          69          70
           71          72          73          74          75          76          77          78          79          80
           81          82          83          84          85          86          87          88          89          90
           91          92          93          94          95          96          97          98          99         100
 ........................................................................................................................
   1    190.1       190.1       190.1       190.1       190.1       190.1       190.1       190.1       190.1       190.1    
        190.1       190.1       190.1       190.1       190.1       190.1       190.1       190.2       190.2       190.2    
        190.2       190.2       190.2       190.2       190.2       190.2       190.2       190.2       190.2       190.2    
        190.2       190.2       190.3       190.3       190.3       190.3       190.3       190.3       190.3       190.3    
        190.3       190.3       190.3       190.3       190.3       190.3       190.3       190.3       190.4       190.4    
        190.4       190.4       190.4       190.4       190.4       190.4       190.4       190.4       190.4       190.4    
        190.4       190.4       190.4       190.4       190.4       190.4       190.4       190.4       190.4       190.4    
        190.4       190.4       190.4       190.4       190.4       190.4       190.4       190.4       190.4       190.4    
        190.4       190.4       190.4       190.4       190.4       190.4       190.4       190.4       190.4       190.4    
        190.4       190.4       190.4       190.4       190.4       190.4       190.4       190.4       190.4       190.4    

 HEAD WILL BE SAVED ON UNIT   51 AT END OF TIME STEP    3, STRESS PERIOD    9

 DRAWDOWN WILL BE SAVED ON UNIT   52 AT END OF TIME STEP    3, STRESS PERIOD    9
1
  VOLUMETRIC BUDGET FOR ENTIRE MODEL AT END OF TIME STEP    3, STRESS PERIOD   9
  ------------------------------------------------------------------------------

     CUMULATIVE VOLUMES      L**3       RATES FOR THIS TIME STEP      L**3/T
     ------------------                 ------------------------

           IN:                                      IN:
           ---                                      ---
             STORAGE =           0.6298               STORAGE =       6.0692E-05
       CONSTANT HEAD =           0.0000         CONSTANT HEAD =           0.0000
               WELLS =           0.0000                 WELLS =           0.0000
            RECHARGE =   100534320.0000              RECHARGE =       37620.0000
    INST. IB STORAGE =           0.8431      INST. IB STORAGE =       1.2611E-06
    DELAY IB STORAGE =           2.3693      DELAY IB STORAGE =       2.1794E-03

            TOTAL IN =   100534320.0000              TOTAL IN =       37620.0039

          OUT:                                     OUT:
          ----                                     ----
             STORAGE =           0.6475               STORAGE =       7.8325E-04
       CONSTANT HEAD =   100534320.0000         CONSTANT HEAD =       37620.0000
               WELLS =           0.0000                 WELLS =           0.0000
            RECHARGE =           0.0000              RECHARGE =           0.0000
    INST. IB STORAGE =           0.8671      INST. IB STORAGE =       1.2395E-03
    DELAY IB STORAGE =           2.2722      DELAY IB STORAGE =       8.0937E-04

           TOTAL OUT =   100534320.0000             TOTAL OUT =       37620.0000

            IN - OUT =           0.0000              IN - OUT =       3.9062E-03

 PERCENT DISCREPANCY =           0.00     PERCENT DISCREPANCY =           0.00






         TIME SUMMARY AT END OF TIME STEP    3 IN STRESS PERIOD    9
                    SECONDS     MINUTES      HOURS       DAYS        YEARS
                    -----------------------------------------------------------
   TIME STEP LENGTH 4.18152E+06  69692.      1161.5      48.397     0.13250    
 STRESS PERIOD TIME 9.87236E+06 1.64539E+05  2742.3      114.26     0.31284    
         TOTAL TIME 2.30892E+08 3.84820E+06  64137.      2672.4      7.3165    
1
 
 SOLVING FOR HEAD 
     2 ITERATIONS FOR TIME STEP   4 IN STRESS PERIOD    9

 OUTPUT CONTROL FOR STRESS PERIOD    9   TIME STEP    4
    SAVE HEAD FOR ALL LAYERS
    SAVE DRAWDOWN FOR ALL LAYERS
    SAVE BUDGET
    PRINT HEAD FOR ALL LAYERS
    PRINT BUDGET
1
              HEAD IN LAYER   1 AT END OF TIME STEP   4 IN STRESS PERIOD    9
  ---------------------------------------------------------------------------

            1           2           3           4           5           6           7           8           9          10
           11          12          13          14          15          16          17          18          19          20
           21          22          23          24          25          26          27          28          29          30
           31          32          33          34          35          36          37          38          39          40
           41          42          43          44          45          46          47          48          49          50
           51          52          53          54          55          56          57          58          59          60
           61          62          63          64          65          66          67          68          69          70
           71          72          73          74          75          76          77          78          79          80
           81          82          83          84          85          86          87          88          89          90
           91          92          93          94          95          96          97          98          99         100
 ........................................................................................................................
   1    10.00       31.68       52.10       71.32       89.40       106.4       122.3       137.3       151.2       164.3    
        176.4       187.6       198.0       207.6       216.3       224.3       231.4       237.8       243.5       248.4    
        252.6       256.1       258.9       260.9       262.3       263.0       0.000       0.000       0.000       0.000    
        0.000       0.000       0.000       0.000       0.000       0.000       0.000       0.000       0.000       0.000    
        0.000       0.000       0.000       0.000       0.000       0.000       0.000       0.000       0.000       0.000    
        0.000       0.000       0.000       0.000       0.000       0.000       0.000       0.000       0.000       0.000    
        0.000       0.000       0.000       0.000       0.000       0.000       0.000       0.000       0.000       294.8    
        294.2       293.0       291.2       288.8       285.9       282.3       278.2       273.4       268.1       262.2    
        255.7       248.5       240.8       232.5       223.5       213.9       203.8       192.9       181.5       169.3    
        156.6       143.1       129.0       114.2       98.68       82.45       65.48       47.77       29.28       10.00    
1
              HEAD IN LAYER   2 AT END OF TIME STEP   4 IN STRESS PERIOD    9
  ---------------------------------------------------------------------------

            1           2           3           4           5           6           7           8           9          10
           11          12          13          14          15          16          17          18          19          20
           21          22          23          24          25          26          27          28          29          30
           31          32          33          34          35          36          37          38          39          40
           41          42          43          44          45          46          47          48          49          50
           51          52          53          54          55          56          57          58          59          60
           61          62          63          64          65          66          67          68          69          70
           71          72          73          74          75          76          77          78          79          80
           81          82          83          84          85          86          87          88          89          90
           91          92          93          94          95          96          97          98          99         100
 ........................................................................................................................
   1    187.1       187.1       187.2       187.3       187.4       187.5       187.7       187.8       188.0       188.1    
        188.3       188.5       188.7       188.8       189.0       189.2       189.3       189.5       189.6       189.7    
        189.8       189.9       190.0       190.1       190.2       190.2       190.3       190.3       190.4       190.4    
        190.4       190.5       190.5       190.5       190.6       190.6       190.7       190.7       190.7       190.8    
        190.8       190.9       190.9       190.9       191.0       191.0       191.1       191.1       191.1       191.2    
        191.2       191.3       191.3       191.4       191.4       191.4       191.5       191.5       191.6       191.6    
        191.6       191.7       191.7       191.8       191.8       191.9       191.9       192.0       192.0       192.0    
        192.1       192.1       192.1       192.0       192.0       191.9       191.8       191.7       191.6       191.5    
        191.4       191.2       191.1       190.9       190.7       190.5       190.3       190.1       189.9       189.8    
        189.6       189.4       189.2       189.1       188.9       188.8       188.7       188.6       188.5       188.5    
1
              HEAD IN LAYER   3 AT END OF TIME STEP   4 IN STRESS PERIOD    9
  ---------------------------------------------------------------------------

            1           2           3           4           5           6           7           8           9          10
           11          12          13          14          15          16          17          18          19          20
           21          22          23          24          25          26          27          28          29          30
           31          32          33          34          35          36          37          38          39          40
           41          42          43          44          45          46          47          48          49          50
           51          52          53          54          55          56          57          58          59          60
           61          62          63          64          65          66          67          68          69          70
           71          72          73          74          75          76          77          78          79          80
           81          82          83          84          85          86          87          88          89          90
           91          92          93          94          95          96          97          98          99         100
 ........................................................................................................................
   1    190.1       190.1       190.1       190.1       190.1       190.1       190.1       190.1       190.1       190.1    
        190.1       190.1       190.1       190.1       190.1       190.1       190.1       190.1       190.2       190.2    
        190.2       190.2       190.2       190.2       190.2       190.2       190.2       190.2       190.2       190.2    
        190.2       190.2       190.3       190.3       190.3       190.3       190.3       190.3       190.3       190.3    
        190.3       190.3       190.3       190.3       190.3       190.3       190.3       190.3       190.4       190.4    
        190.4       190.4       190.4       190.4       190.4       190.4       190.4       190.4       190.4       190.4    
        190.4       190.4       190.4       190.4       190.4       190.4       190.4       190.4       190.4       190.4    
        190.4       190.4       190.4       190.4       190.4       190.4       190.4       190.4       190.4       190.4    
        190.4       190.4       190.4       190.4       190.4       190.4       190.4       190.4       190.4       190.4    
        190.4       190.4       190.4       190.4       190.4       190.4       190.4       190.4       190.4       190.4    

 HEAD WILL BE SAVED ON UNIT   51 AT END OF TIME STEP    4, STRESS PERIOD    9

 DRAWDOWN WILL BE SAVED ON UNIT   52 AT END OF TIME STEP    4, STRESS PERIOD    9
1
  VOLUMETRIC BUDGET FOR ENTIRE MODEL AT END OF TIME STEP    4, STRESS PERIOD   9
  ------------------------------------------------------------------------------

     CUMULATIVE VOLUMES      L**3       RATES FOR THIS TIME STEP      L**3/T
     ------------------                 ------------------------

           IN:                                      IN:
           ---                                      ---
             STORAGE =           0.6532               STORAGE =       3.7293E-04
       CONSTANT HEAD =           0.0000         CONSTANT HEAD =           0.0000
               WELLS =           0.0000                 WELLS =           0.0000
            RECHARGE =   102901240.0000              RECHARGE =       37620.0000
    INST. IB STORAGE =           0.8728      INST. IB STORAGE =       4.7232E-04
    DELAY IB STORAGE =           2.3763      DELAY IB STORAGE =       1.1099E-04

            TOTAL IN =   102901240.0000              TOTAL IN =       37620.0000

          OUT:                                     OUT:
          ----                                     ----
             STORAGE =           0.6475               STORAGE =       7.1593E-07
       CONSTANT HEAD =   102901240.0000         CONSTANT HEAD =       37620.0000
               WELLS =           0.0000                 WELLS =           0.0000
            RECHARGE =           0.0000              RECHARGE =           0.0000
    INST. IB STORAGE =           0.8672      INST. IB STORAGE =       1.6977E-06
    DELAY IB STORAGE =           2.3648      DELAY IB STORAGE =       1.4721E-03

           TOTAL OUT =   102901240.0000             TOTAL OUT =       37620.0000

            IN - OUT =           0.0000              IN - OUT =           0.0000

 PERCENT DISCREPANCY =           0.00     PERCENT DISCREPANCY =           0.00






         TIME SUMMARY AT END OF TIME STEP    4 IN STRESS PERIOD    9
                    SECONDS     MINUTES      HOURS       DAYS        YEARS
                    -----------------------------------------------------------
   TIME STEP LENGTH 5.43598E+06  90600.      1510.0      62.916     0.17226    
 STRESS PERIOD TIME 1.53083E+07 2.55139E+05  4252.3      177.18     0.48509    
         TOTAL TIME 2.36328E+08 3.93880E+06  65647.      2735.3      7.4888    
1
 
 SOLVING FOR HEAD 
     1 ITERATIONS FOR TIME STEP   5 IN STRESS PERIOD    9

 MAXIMUM HEAD CHANGE FOR EACH ITERATION:

    HEAD CHANGE   HEAD CHANGE   HEAD CHANGE   HEAD CHANGE   HEAD CHANGE
  LAYER,ROW,COL LAYER,ROW,COL LAYER,ROW,COL LAYER,ROW,COL LAYER,ROW,COL
 ----------------------------------------------------------------------
    -0.8225E-04
  (  3,  1, 87)


 OUTPUT CONTROL FOR STRESS PERIOD    9   TIME STEP    5
    SAVE HEAD FOR ALL LAYERS
    SAVE DRAWDOWN FOR ALL LAYERS
    SAVE BUDGET
    PRINT HEAD FOR ALL LAYERS
    PRINT BUDGET
1
              HEAD IN LAYER   1 AT END OF TIME STEP   5 IN STRESS PERIOD    9
  ---------------------------------------------------------------------------

            1           2           3           4           5           6           7           8           9          10
           11          12          13          14          15          16          17          18          19          20
           21          22          23          24          25          26          27          28          29          30
           31          32          33          34          35          36          37          38          39          40
           41          42          43          44          45          46          47          48          49          50
           51          52          53          54          55          56          57          58          59          60
           61          62          63          64          65          66          67          68          69          70
           71          72          73          74          75          76          77          78          79          80
           81          82          83          84          85          86          87          88          89          90
           91          92          93          94          95          96          97          98          99         100
 ........................................................................................................................
   1    10.00       31.68       52.10       71.32       89.40       106.4       122.3       137.3       151.2       164.3    
        176.4       187.6       198.0       207.6       216.3       224.3       231.4       237.8       243.5       248.4    
        252.6       256.1       258.9       260.9       262.3       263.0       0.000       0.000       0.000       0.000    
        0.000       0.000       0.000       0.000       0.000       0.000       0.000       0.000       0.000       0.000    
        0.000       0.000       0.000       0.000       0.000       0.000       0.000       0.000       0.000       0.000    
        0.000       0.000       0.000       0.000       0.000       0.000       0.000       0.000       0.000       0.000    
        0.000       0.000       0.000       0.000       0.000       0.000       0.000       0.000       0.000       294.8    
        294.2       293.0       291.2       288.8       285.9       282.3       278.2       273.4       268.1       262.2    
        255.7       248.5       240.8       232.5       223.5       213.9       203.8       192.9       181.5       169.3    
        156.6       143.1       129.0       114.2       98.68       82.45       65.48       47.77       29.28       10.00    
1
              HEAD IN LAYER   2 AT END OF TIME STEP   5 IN STRESS PERIOD    9
  ---------------------------------------------------------------------------

            1           2           3           4           5           6           7           8           9          10
           11          12          13          14          15          16          17          18          19          20
           21          22          23          24          25          26          27          28          29          30
           31          32          33          34          35          36          37          38          39          40
           41          42          43          44          45          46          47          48          49          50
           51          52          53          54          55          56          57          58          59          60
           61          62          63          64          65          66          67          68          69          70
           71          72          73          74          75          76          77          78          79          80
           81          82          83          84          85          86          87          88          89          90
           91          92          93          94          95          96          97          98          99         100
 ........................................................................................................................
   1    187.1       187.1       187.2       187.3       187.4       187.5       187.7       187.8       188.0       188.1    
        188.3       188.5       188.7       188.8       189.0       189.2       189.3       189.5       189.6       189.7    
        189.8       189.9       190.0       190.1       190.2       190.2       190.3       190.3       190.4       190.4    
        190.4       190.5       190.5       190.5       190.6       190.6       190.7       190.7       190.7       190.8    
        190.8       190.9       190.9       190.9       191.0       191.0       191.1       191.1       191.1       191.2    
        191.2       191.3       191.3       191.4       191.4       191.4       191.5       191.5       191.6       191.6    
        191.6       191.7       191.7       191.8       191.8       191.9       191.9       192.0       192.0       192.0    
        192.1       192.1       192.1       192.0       192.0       191.9       191.8       191.7       191.6       191.5    
        191.4       191.2       191.1       190.9       190.7       190.5       190.3       190.1       189.9       189.8    
        189.6       189.4       189.2       189.1       188.9       188.8       188.7       188.6       188.5       188.5    
1
              HEAD IN LAYER   3 AT END OF TIME STEP   5 IN STRESS PERIOD    9
  ---------------------------------------------------------------------------

            1           2           3           4           5           6           7           8           9          10
           11          12          13          14          15          16          17          18          19          20
           21          22          23          24          25          26          27          28          29          30
           31          32          33          34          35          36          37          38          39          40
           41          42          43          44          45          46          47          48          49          50
           51          52          53          54          55          56          57          58          59          60
           61          62          63          64          65          66          67          68          69          70
           71          72          73          74          75          76          77          78          79          80
           81          82          83          84          85          86          87          88          89          90
           91          92          93          94          95          96          97          98          99         100
 ........................................................................................................................
   1    190.1       190.1       190.1       190.1       190.1       190.1       190.1       190.1       190.1       190.1    
        190.1       190.1       190.1       190.1       190.1       190.1       190.1       190.1       190.2       190.2    
        190.2       190.2       190.2       190.2       190.2       190.2       190.2       190.2       190.2       190.2    
        190.2       190.2       190.3       190.3       190.3       190.3       190.3       190.3       190.3       190.3    
        190.3       190.3       190.3       190.3       190.3       190.3       190.3       190.3       190.4       190.4    
        190.4       190.4       190.4       190.4       190.4       190.4       190.4       190.4       190.4       190.4    
        190.4       190.4       190.4       190.4       190.4       190.4       190.4       190.4       190.4       190.4    
        190.4       190.4       190.4       190.4       190.4       190.4       190.4       190.4       190.4       190.4    
        190.4       190.4       190.4       190.4       190.4       190.4       190.4       190.4       190.4       190.4    
        190.4       190.4       190.4       190.4       190.4       190.4       190.4       190.4       190.4       190.4    

 HEAD WILL BE SAVED ON UNIT   51 AT END OF TIME STEP    5, STRESS PERIOD    9

 DRAWDOWN WILL BE SAVED ON UNIT   52 AT END OF TIME STEP    5, STRESS PERIOD    9
1
  VOLUMETRIC BUDGET FOR ENTIRE MODEL AT END OF TIME STEP    5, STRESS PERIOD   9
  ------------------------------------------------------------------------------

     CUMULATIVE VOLUMES      L**3       RATES FOR THIS TIME STEP      L**3/T
     ------------------                 ------------------------

           IN:                                      IN:
           ---                                      ---
             STORAGE =           0.6621               STORAGE =       1.0863E-04
       CONSTANT HEAD =           0.0000         CONSTANT HEAD =           0.0000
               WELLS =           0.0000                 WELLS =           0.0000
            RECHARGE =   105978232.0000              RECHARGE =       37620.0000
    INST. IB STORAGE =           0.8873      INST. IB STORAGE =       1.7686E-04
    DELAY IB STORAGE =           2.4078      DELAY IB STORAGE =       3.8500E-04

            TOTAL IN =   105978232.0000              TOTAL IN =       37620.0000

          OUT:                                     OUT:
          ----                                     ----
             STORAGE =           0.6528               STORAGE =       6.4642E-05
       CONSTANT HEAD =   105978232.0000         CONSTANT HEAD =       37620.0000
               WELLS =           0.0000                 WELLS =           0.0000
            RECHARGE =           0.0000              RECHARGE =           0.0000
    INST. IB STORAGE =           0.8674      INST. IB STORAGE =       1.6790E-06
    DELAY IB STORAGE =           2.4113      DELAY IB STORAGE =       5.6851E-04

           TOTAL OUT =   105978232.0000             TOTAL OUT =       37620.0000

            IN - OUT =           0.0000              IN - OUT =           0.0000

 PERCENT DISCREPANCY =           0.00     PERCENT DISCREPANCY =           0.00






         TIME SUMMARY AT END OF TIME STEP    5 IN STRESS PERIOD    9
                    SECONDS     MINUTES      HOURS       DAYS        YEARS
                    -----------------------------------------------------------
   TIME STEP LENGTH 7.06678E+06 1.17780E+05  1963.0      81.791     0.22393    
 STRESS PERIOD TIME 2.23751E+07 3.72919E+05  6215.3      258.97     0.70902    
         TOTAL TIME 2.43395E+08 4.05658E+06  67610.      2817.1      7.7127    
1
 
 SOLVING FOR HEAD 
     2 ITERATIONS FOR TIME STEP   6 IN STRESS PERIOD    9

 MAXIMUM HEAD CHANGE FOR EACH ITERATION:

    HEAD CHANGE   HEAD CHANGE   HEAD CHANGE   HEAD CHANGE   HEAD CHANGE
  LAYER,ROW,COL LAYER,ROW,COL LAYER,ROW,COL LAYER,ROW,COL LAYER,ROW,COL
 ----------------------------------------------------------------------
     0.1301E-03    0.5596E-04
  (  3,  1,  8) (  2,  1, 44)


 OUTPUT CONTROL FOR STRESS PERIOD    9   TIME STEP    6
    SAVE HEAD FOR ALL LAYERS
    SAVE DRAWDOWN FOR ALL LAYERS
    SAVE BUDGET
    PRINT HEAD FOR ALL LAYERS
    PRINT BUDGET
1
              HEAD IN LAYER   1 AT END OF TIME STEP   6 IN STRESS PERIOD    9
  ---------------------------------------------------------------------------

            1           2           3           4           5           6           7           8           9          10
           11          12          13          14          15          16          17          18          19          20
           21          22          23          24          25          26          27          28          29          30
           31          32          33          34          35          36          37          38          39          40
           41          42          43          44          45          46          47          48          49          50
           51          52          53          54          55          56          57          58          59          60
           61          62          63          64          65          66          67          68          69          70
           71          72          73          74          75          76          77          78          79          80
           81          82          83          84          85          86          87          88          89          90
           91          92          93          94          95          96          97          98          99         100
 ........................................................................................................................
   1    10.00       31.68       52.10       71.32       89.40       106.4       122.3       137.3       151.2       164.3    
        176.4       187.6       198.0       207.6       216.3       224.3       231.4       237.8       243.5       248.4    
        252.6       256.1       258.9       260.9       262.3       263.0       0.000       0.000       0.000       0.000    
        0.000       0.000       0.000       0.000       0.000       0.000       0.000       0.000       0.000       0.000    
        0.000       0.000       0.000       0.000       0.000       0.000       0.000       0.000       0.000       0.000    
        0.000       0.000       0.000       0.000       0.000       0.000       0.000       0.000       0.000       0.000    
        0.000       0.000       0.000       0.000       0.000       0.000       0.000       0.000       0.000       294.8    
        294.2       293.0       291.2       288.8       285.9       282.3       278.2       273.4       268.1       262.2    
        255.7       248.5       240.8       232.5       223.5       213.9       203.8       192.9       181.5       169.3    
        156.6       143.1       129.0       114.2       98.68       82.45       65.48       47.77       29.28       10.00    
1
              HEAD IN LAYER   2 AT END OF TIME STEP   6 IN STRESS PERIOD    9
  ---------------------------------------------------------------------------

            1           2           3           4           5           6           7           8           9          10
           11          12          13          14          15          16          17          18          19          20
           21          22          23          24          25          26          27          28          29          30
           31          32          33          34          35          36          37          38          39          40
           41          42          43          44          45          46          47          48          49          50
           51          52          53          54          55          56          57          58          59          60
           61          62          63          64          65          66          67          68          69          70
           71          72          73          74          75          76          77          78          79          80
           81          82          83          84          85          86          87          88          89          90
           91          92          93          94          95          96          97          98          99         100
 ........................................................................................................................
   1    187.1       187.1       187.2       187.3       187.4       187.5       187.7       187.8       188.0       188.1    
        188.3       188.5       188.7       188.8       189.0       189.2       189.3       189.5       189.6       189.7    
        189.8       189.9       190.0       190.1       190.2       190.2       190.3       190.3       190.4       190.4    
        190.4       190.5       190.5       190.5       190.6       190.6       190.7       190.7       190.7       190.8    
        190.8       190.9       190.9       190.9       191.0       191.0       191.1       191.1       191.1       191.2    
        191.2       191.3       191.3       191.4       191.4       191.4       191.5       191.5       191.6       191.6    
        191.6       191.7       191.7       191.8       191.8       191.9       191.9       192.0       192.0       192.0    
        192.1       192.1       192.1       192.0       192.0       191.9       191.8       191.7       191.6       191.5    
        191.4       191.2       191.1       190.9       190.7       190.5       190.3       190.1       189.9       189.8    
        189.6       189.4       189.2       189.1       188.9       188.8       188.7       188.6       188.5       188.5    
1
              HEAD IN LAYER   3 AT END OF TIME STEP   6 IN STRESS PERIOD    9
  ---------------------------------------------------------------------------

            1           2           3           4           5           6           7           8           9          10
           11          12          13          14          15          16          17          18          19          20
           21          22          23          24          25          26          27          28          29          30
           31          32          33          34          35          36          37          38          39          40
           41          42          43          44          45          46          47          48          49          50
           51          52          53          54          55          56          57          58          59          60
           61          62          63          64          65          66          67          68          69          70
           71          72          73          74          75          76          77          78          79          80
           81          82          83          84          85          86          87          88          89          90
           91          92          93          94          95          96          97          98          99         100
 ........................................................................................................................
   1    190.1       190.1       190.1       190.1       190.1       190.1       190.1       190.1       190.1       190.1    
        190.1       190.1       190.1       190.1       190.1       190.1       190.1       190.1       190.2       190.2    
        190.2       190.2       190.2       190.2       190.2       190.2       190.2       190.2       190.2       190.2    
        190.2       190.2       190.3       190.3       190.3       190.3       190.3       190.3       190.3       190.3    
        190.3       190.3       190.3       190.3       190.3       190.3       190.3       190.3       190.4       190.4    
        190.4       190.4       190.4       190.4       190.4       190.4       190.4       190.4       190.4       190.4    
        190.4       190.4       190.4       190.4       190.4       190.4       190.4       190.4       190.4       190.4    
        190.4       190.4       190.4       190.4       190.4       190.4       190.4       190.4       190.4       190.4    
        190.4       190.4       190.4       190.4       190.4       190.4       190.4       190.4       190.4       190.4    
        190.4       190.4       190.4       190.4       190.4       190.4       190.4       190.4       190.4       190.4    

 HEAD WILL BE SAVED ON UNIT   51 AT END OF TIME STEP    6, STRESS PERIOD    9

 DRAWDOWN WILL BE SAVED ON UNIT   52 AT END OF TIME STEP    6, STRESS PERIOD    9
1
  VOLUMETRIC BUDGET FOR ENTIRE MODEL AT END OF TIME STEP    6, STRESS PERIOD   9
  ------------------------------------------------------------------------------

     CUMULATIVE VOLUMES      L**3       RATES FOR THIS TIME STEP      L**3/T
     ------------------                 ------------------------

           IN:                                      IN:
           ---                                      ---
             STORAGE =           0.6662               STORAGE =       3.8675E-05
       CONSTANT HEAD =           0.0000         CONSTANT HEAD =           0.0000
               WELLS =           0.0000                 WELLS =           0.0000
            RECHARGE =   109978320.0000              RECHARGE =       37620.0000
    INST. IB STORAGE =           0.8874      INST. IB STORAGE =       8.6103E-07
    DELAY IB STORAGE =           2.5108      DELAY IB STORAGE =       9.6897E-04

            TOTAL IN =   109978320.0000              TOTAL IN =       37620.0000

          OUT:                                     OUT:
          ----                                     ----
             STORAGE =           0.6763               STORAGE =       2.2083E-04
       CONSTANT HEAD =   109978320.0000         CONSTANT HEAD =       37620.0000
               WELLS =           0.0000                 WELLS =           0.0000
            RECHARGE =           0.0000              RECHARGE =           0.0000
    INST. IB STORAGE =           0.9003      INST. IB STORAGE =       3.0940E-04
    DELAY IB STORAGE =           2.4158      DELAY IB STORAGE =       4.2343E-05

           TOTAL OUT =   109978320.0000             TOTAL OUT =       37620.0000

            IN - OUT =           0.0000              IN - OUT =           0.0000

 PERCENT DISCREPANCY =           0.00     PERCENT DISCREPANCY =           0.00






         TIME SUMMARY AT END OF TIME STEP    6 IN STRESS PERIOD    9
                    SECONDS     MINUTES      HOURS       DAYS        YEARS
                    -----------------------------------------------------------
   TIME STEP LENGTH 9.18681E+06 1.53113E+05  2551.9      106.33     0.29111    
 STRESS PERIOD TIME 3.15619E+07 5.26032E+05  8767.2      365.30      1.0001    
         TOTAL TIME 2.52582E+08 4.20970E+06  70162.      2923.4      8.0038    
1

                               VOLUMETRIC BUDGET FOR SYSTEMS OF DELAY INTERBEDS
                                          AT END OF TIME STEP  6 IN STRESS PERIOD  9

          |   C U M U L A T I V E   V O L U M E S   L**3           | R A T E S   F O R  T H I S  T I M E  S T E P   L**3/T  |
   SYSTEM |    CHANGE IN     BOUNDARY                    PERCENT   |    CHANGE IN     BOUNDARY                    PERCENT   |
   NUMBER |     STORAGE        FLOW           SUM      DISCREPANCY |     STORAGE        FLOW           SUM      DISCREPANCY |
  --------|--------------------------------------------------------|--------------------------------------------------------|
      1    0.25413E-01   -0.25413E-01   -0.14901E-07   -0.58636E-04    0.29792E-03   -0.29792E-03   -0.58208E-10   -0.19538E-04
      2    0.69608E-01   -0.69608E-01   -0.11176E-06   -0.16055E-03    0.62871E-03   -0.62871E-03     0.0000         0.0000    
  --------|--------------------------------------------------------|--------------------------------------------------------|
 TOTALS:    0.95021E-01   -0.95021E-01   -0.12666E-06   -0.13330E-03    0.92663E-03   -0.92663E-03   -0.58208E-10   -0.62817E-05
1
                            STRESS PERIOD NO.   10, LENGTH =   365.3000    
                            -----------------------------------------------

                              NUMBER OF TIME STEPS =     6

                               MULTIPLIER FOR DELT =     1.300

                            INITIAL TIME STEP SIZE =   28.63744    

 WELL NO.  LAYER   ROW   COL   STRESS RATE         
 --------------------------------------------------
      1      1      1     50     -0.1532E+06

      1 WELL 

 REUSING RECH FROM LAST STRESS PERIOD
 
 SOLVING FOR HEAD 

     2 ITERATIONS FOR TIME STEP   1 IN STRESS PERIOD   10

 OUTPUT CONTROL FOR STRESS PERIOD   10   TIME STEP    1
    SAVE HEAD FOR ALL LAYERS
    SAVE DRAWDOWN FOR ALL LAYERS
    SAVE BUDGET
    PRINT HEAD FOR ALL LAYERS
    PRINT BUDGET
1
              HEAD IN LAYER   1 AT END OF TIME STEP   1 IN STRESS PERIOD   10
  ---------------------------------------------------------------------------

            1           2           3           4           5           6           7           8           9          10
           11          12          13          14          15          16          17          18          19          20
           21          22          23          24          25          26          27          28          29          30
           31          32          33          34          35          36          37          38          39          40
           41          42          43          44          45          46          47          48          49          50
           51          52          53          54          55          56          57          58          59          60
           61          62          63          64          65          66          67          68          69          70
           71          72          73          74          75          76          77          78          79          80
           81          82          83          84          85          86          87          88          89          90
           91          92          93          94          95          96          97          98          99         100
 ........................................................................................................................
   1    10.00       31.68       52.10       71.32       89.40       106.4       122.3       137.3       151.2       164.3    
        176.4       187.6       198.0       207.6       216.3       224.3       231.4       237.8       243.5       248.4    
        252.6       256.1       258.9       260.9       262.3       263.0       0.000       0.000       0.000       0.000    
        0.000       0.000       0.000       0.000       0.000       0.000       0.000       0.000       0.000       0.000    
        0.000       0.000       0.000       0.000       0.000       0.000       0.000       0.000       0.000       0.000    
        0.000       0.000       0.000       0.000       0.000       0.000       0.000       0.000       0.000       0.000    
        0.000       0.000       0.000       0.000       0.000       0.000       0.000       0.000       0.000       294.8    
        294.2       293.0       291.2       288.8       285.9       282.3       278.2       273.4       268.1       262.2    
        255.7       248.5       240.8       232.5       223.5       213.9       203.8       192.9       181.5       169.3    
        156.6       143.1       129.0       114.2       98.68       82.45       65.48       47.77       29.28       10.00    
1
              HEAD IN LAYER   2 AT END OF TIME STEP   1 IN STRESS PERIOD   10
  ---------------------------------------------------------------------------

            1           2           3           4           5           6           7           8           9          10
           11          12          13          14          15          16          17          18          19          20
           21          22          23          24          25          26          27          28          29          30
           31          32          33          34          35          36          37          38          39          40
           41          42          43          44          45          46          47          48          49          50
           51          52          53          54          55          56          57          58          59          60
           61          62          63          64          65          66          67          68          69          70
           71          72          73          74          75          76          77          78          79          80
           81          82          83          84          85          86          87          88          89          90
           91          92          93          94          95          96          97          98          99         100
 ........................................................................................................................
   1    187.1       187.1       187.2       187.3       187.4       187.5       187.7       187.8       188.0       188.1    
        188.3       188.5       188.7       188.8       189.0       189.2       189.3       189.5       189.6       189.7    
        189.8       189.9       190.0       190.1       190.2       190.2       190.3       190.3       190.4       190.4    
        190.4       190.5       190.5       190.5       190.6       190.6       190.7       190.7       190.7       190.8    
        190.8       190.9       190.9       190.9       191.0       191.0       191.1       191.1       191.1       191.2    
        191.2       191.3       191.3       191.4       191.4       191.4       191.5       191.5       191.6       191.6    
        191.6       191.7       191.7       191.8       191.8       191.9       191.9       192.0       192.0       192.0    
        192.1       192.1       192.1       192.0       192.0       191.9       191.8       191.7       191.6       191.5    
        191.4       191.2       191.1       190.9       190.7       190.5       190.3       190.1       189.9       189.8    
        189.6       189.4       189.2       189.1       188.9       188.8       188.7       188.6       188.5       188.5    
1
              HEAD IN LAYER   3 AT END OF TIME STEP   1 IN STRESS PERIOD   10
  ---------------------------------------------------------------------------

            1           2           3           4           5           6           7           8           9          10
           11          12          13          14          15          16          17          18          19          20
           21          22          23          24          25          26          27          28          29          30
           31          32          33          34          35          36          37          38          39          40
           41          42          43          44          45          46          47          48          49          50
           51          52          53          54          55          56          57          58          59          60
           61          62          63          64          65          66          67          68          69          70
           71          72          73          74          75          76          77          78          79          80
           81          82          83          84          85          86          87          88          89          90
           91          92          93          94          95          96          97          98          99         100
 ........................................................................................................................
   1    190.1       190.1       190.1       190.1       190.1       190.1       190.1       190.1       190.1       190.1    
        190.1       190.1       190.1       190.1       190.1       190.1       190.1       190.1       190.2       190.2    
        190.2       190.2       190.2       190.2       190.2       190.2       190.2       190.2       190.2       190.2    
        190.2       190.2       190.3       190.3       190.3       190.3       190.3       190.3       190.3       190.3    
        190.3       190.3       190.3       190.3       190.3       190.3       190.3       190.3       190.4       190.4    
        190.4       190.4       190.4       190.4       190.4       190.4       190.4       190.4       190.4       190.4    
        190.4       190.4       190.4       190.4       190.4       190.4       190.4       190.4       190.4       190.4    
        190.4       190.4       190.4       190.4       190.4       190.4       190.4       190.4       190.4       190.4    
        190.4       190.4       190.4       190.4       190.4       190.4       190.4       190.4       190.4       190.4    
        190.4       190.4       190.4       190.4       190.4       190.4       190.4       190.4       190.4       190.4    

 HEAD WILL BE SAVED ON UNIT   51 AT END OF TIME STEP    1, STRESS PERIOD   10

 DRAWDOWN WILL BE SAVED ON UNIT   52 AT END OF TIME STEP    1, STRESS PERIOD   10
1
  VOLUMETRIC BUDGET FOR ENTIRE MODEL AT END OF TIME STEP    1, STRESS PERIOD  10
  ------------------------------------------------------------------------------

     CUMULATIVE VOLUMES      L**3       RATES FOR THIS TIME STEP      L**3/T
     ------------------                 ------------------------

           IN:                                      IN:
           ---                                      ---
             STORAGE =           0.7068               STORAGE =       1.4177E-03
       CONSTANT HEAD =           0.0000         CONSTANT HEAD =           0.0000
               WELLS =           0.0000                 WELLS =           0.0000
            RECHARGE =   111055664.0000              RECHARGE =       37620.0000
    INST. IB STORAGE =           0.9512      INST. IB STORAGE =       2.2293E-03
    DELAY IB STORAGE =           2.5236      DELAY IB STORAGE =       4.4837E-04

            TOTAL IN =   111055664.0000              TOTAL IN =       37620.0039

          OUT:                                     OUT:
          ----                                     ----
             STORAGE =           0.6766               STORAGE =       1.0257E-05
       CONSTANT HEAD =   111055664.0000         CONSTANT HEAD =       37620.0000
               WELLS =           0.0000                 WELLS =           0.0000
            RECHARGE =           0.0000              RECHARGE =           0.0000
    INST. IB STORAGE =           0.9003      INST. IB STORAGE =       2.6641E-07
    DELAY IB STORAGE =           2.5270      DELAY IB STORAGE =       3.8846E-03

           TOTAL OUT =   111055664.0000             TOTAL OUT =       37620.0039

            IN - OUT =           0.0000              IN - OUT =           0.0000

 PERCENT DISCREPANCY =           0.00     PERCENT DISCREPANCY =           0.00






         TIME SUMMARY AT END OF TIME STEP    1 IN STRESS PERIOD   10
                    SECONDS     MINUTES      HOURS       DAYS        YEARS
                    -----------------------------------------------------------
   TIME STEP LENGTH 2.47427E+06  41238.      687.30      28.637     7.84050E-02
 STRESS PERIOD TIME 2.47427E+06  41238.      687.30      28.637     7.84050E-02
         TOTAL TIME 2.55056E+08 4.25094E+06  70849.      2952.0      8.0822    
1
 
 SOLVING FOR HEAD 
     2 ITERATIONS FOR TIME STEP   2 IN STRESS PERIOD   10

 OUTPUT CONTROL FOR STRESS PERIOD   10   TIME STEP    2
    SAVE HEAD FOR ALL LAYERS
    SAVE DRAWDOWN FOR ALL LAYERS
    SAVE BUDGET
    PRINT HEAD FOR ALL LAYERS
    PRINT BUDGET
1
              HEAD IN LAYER   1 AT END OF TIME STEP   2 IN STRESS PERIOD   10
  ---------------------------------------------------------------------------

            1           2           3           4           5           6           7           8           9          10
           11          12          13          14          15          16          17          18          19          20
           21          22          23          24          25          26          27          28          29          30
           31          32          33          34          35          36          37          38          39          40
           41          42          43          44          45          46          47          48          49          50
           51          52          53          54          55          56          57          58          59          60
           61          62          63          64          65          66          67          68          69          70
           71          72          73          74          75          76          77          78          79          80
           81          82          83          84          85          86          87          88          89          90
           91          92          93          94          95          96          97          98          99         100
 ........................................................................................................................
   1    10.00       31.68       52.10       71.32       89.40       106.4       122.3       137.3       151.2       164.3    
        176.4       187.6       198.0       207.6       216.3       224.3       231.4       237.8       243.5       248.4    
        252.6       256.1       258.9       260.9       262.3       263.0       0.000       0.000       0.000       0.000    
        0.000       0.000       0.000       0.000       0.000       0.000       0.000       0.000       0.000       0.000    
        0.000       0.000       0.000       0.000       0.000       0.000       0.000       0.000       0.000       0.000    
        0.000       0.000       0.000       0.000       0.000       0.000       0.000       0.000       0.000       0.000    
        0.000       0.000       0.000       0.000       0.000       0.000       0.000       0.000       0.000       294.8    
        294.2       293.0       291.2       288.8       285.9       282.3       278.2       273.4       268.1       262.2    
        255.7       248.5       240.8       232.5       223.5       213.9       203.8       192.9       181.5       169.3    
        156.6       143.1       129.0       114.2       98.68       82.45       65.48       47.77       29.28       10.00    
1
              HEAD IN LAYER   2 AT END OF TIME STEP   2 IN STRESS PERIOD   10
  ---------------------------------------------------------------------------

            1           2           3           4           5           6           7           8           9          10
           11          12          13          14          15          16          17          18          19          20
           21          22          23          24          25          26          27          28          29          30
           31          32          33          34          35          36          37          38          39          40
           41          42          43          44          45          46          47          48          49          50
           51          52          53          54          55          56          57          58          59          60
           61          62          63          64          65          66          67          68          69          70
           71          72          73          74          75          76          77          78          79          80
           81          82          83          84          85          86          87          88          89          90
           91          92          93          94          95          96          97          98          99         100
 ........................................................................................................................
   1    187.1       187.1       187.2       187.3       187.4       187.5       187.7       187.8       188.0       188.1    
        188.3       188.5       188.7       188.8       189.0       189.2       189.3       189.5       189.6       189.7    
        189.8       189.9       190.0       190.1       190.2       190.2       190.3       190.3       190.4       190.4    
        190.4       190.5       190.5       190.5       190.6       190.6       190.7       190.7       190.7       190.8    
        190.8       190.9       190.9       190.9       191.0       191.0       191.1       191.1       191.1       191.2    
        191.2       191.3       191.3       191.4       191.4       191.4       191.5       191.5       191.6       191.6    
        191.6       191.7       191.7       191.8       191.8       191.9       191.9       192.0       192.0       192.0    
        192.1       192.1       192.1       192.0       192.0       191.9       191.8       191.7       191.6       191.5    
        191.4       191.2       191.1       190.9       190.7       190.5       190.3       190.1       189.9       189.8    
        189.6       189.4       189.2       189.1       188.9       188.8       188.7       188.6       188.5       188.5    
1
              HEAD IN LAYER   3 AT END OF TIME STEP   2 IN STRESS PERIOD   10
  ---------------------------------------------------------------------------

            1           2           3           4           5           6           7           8           9          10
           11          12          13          14          15          16          17          18          19          20
           21          22          23          24          25          26          27          28          29          30
           31          32          33          34          35          36          37          38          39          40
           41          42          43          44          45          46          47          48          49          50
           51          52          53          54          55          56          57          58          59          60
           61          62          63          64          65          66          67          68          69          70
           71          72          73          74          75          76          77          78          79          80
           81          82          83          84          85          86          87          88          89          90
           91          92          93          94          95          96          97          98          99         100
 ........................................................................................................................
   1    190.1       190.1       190.1       190.1       190.1       190.1       190.1       190.1       190.1       190.1    
        190.1       190.1       190.1       190.1       190.1       190.1       190.1       190.1       190.2       190.2    
        190.2       190.2       190.2       190.2       190.2       190.2       190.2       190.2       190.2       190.2    
        190.2       190.2       190.3       190.3       190.3       190.3       190.3       190.3       190.3       190.3    
        190.3       190.3       190.3       190.3       190.3       190.3       190.3       190.3       190.4       190.4    
        190.4       190.4       190.4       190.4       190.4       190.4       190.4       190.4       190.4       190.4    
        190.4       190.4       190.4       190.4       190.4       190.4       190.4       190.4       190.4       190.4    
        190.4       190.4       190.4       190.4       190.4       190.4       190.4       190.4       190.4       190.4    
        190.4       190.4       190.4       190.4       190.4       190.4       190.4       190.4       190.4       190.4    
        190.4       190.4       190.4       190.4       190.4       190.4       190.4       190.4       190.4       190.4    

 HEAD WILL BE SAVED ON UNIT   51 AT END OF TIME STEP    2, STRESS PERIOD   10

 DRAWDOWN WILL BE SAVED ON UNIT   52 AT END OF TIME STEP    2, STRESS PERIOD   10
1
  VOLUMETRIC BUDGET FOR ENTIRE MODEL AT END OF TIME STEP    2, STRESS PERIOD  10
  ------------------------------------------------------------------------------

     CUMULATIVE VOLUMES      L**3       RATES FOR THIS TIME STEP      L**3/T
     ------------------                 ------------------------

           IN:                                      IN:
           ---                                      ---
             STORAGE =           0.7110               STORAGE =       1.1193E-04
       CONSTANT HEAD =           0.0000         CONSTANT HEAD =           0.0000
               WELLS =           0.0000                 WELLS =           0.0000
            RECHARGE =   112456208.0000              RECHARGE =       37620.0000
    INST. IB STORAGE =           0.9533      INST. IB STORAGE =       5.7176E-05
    DELAY IB STORAGE =           2.5810      DELAY IB STORAGE =       1.5396E-03

            TOTAL IN =   112456208.0000              TOTAL IN =       37620.0000

          OUT:                                     OUT:
          ----                                     ----
             STORAGE =           0.6946               STORAGE =       4.8388E-04
       CONSTANT HEAD =   112456208.0000         CONSTANT HEAD =       37620.0000
               WELLS =           0.0000                 WELLS =           0.0000
            RECHARGE =           0.0000              RECHARGE =           0.0000
    INST. IB STORAGE =           0.9203      INST. IB STORAGE =       5.3693E-04
    DELAY IB STORAGE =           2.5320      DELAY IB STORAGE =       1.3429E-04

           TOTAL OUT =   112456208.0000             TOTAL OUT =       37620.0000

            IN - OUT =           0.0000              IN - OUT =           0.0000

 PERCENT DISCREPANCY =           0.00     PERCENT DISCREPANCY =           0.00






         TIME SUMMARY AT END OF TIME STEP    2 IN STRESS PERIOD   10
                    SECONDS     MINUTES      HOURS       DAYS        YEARS
                    -----------------------------------------------------------
   TIME STEP LENGTH 3.21656E+06  53609.      893.49      37.229     0.10193    
 STRESS PERIOD TIME 5.69083E+06  94847.      1580.8      65.866     0.18033    
         TOTAL TIME 2.58273E+08 4.30454E+06  71742.      2989.3      8.1842    
1
 
 SOLVING FOR HEAD 
     2 ITERATIONS FOR TIME STEP   3 IN STRESS PERIOD   10

 OUTPUT CONTROL FOR STRESS PERIOD   10   TIME STEP    3
    SAVE HEAD FOR ALL LAYERS
    SAVE DRAWDOWN FOR ALL LAYERS
    SAVE BUDGET
    PRINT HEAD FOR ALL LAYERS
    PRINT BUDGET
1
              HEAD IN LAYER   1 AT END OF TIME STEP   3 IN STRESS PERIOD   10
  ---------------------------------------------------------------------------

            1           2           3           4           5           6           7           8           9          10
           11          12          13          14          15          16          17          18          19          20
           21          22          23          24          25          26          27          28          29          30
           31          32          33          34          35          36          37          38          39          40
           41          42          43          44          45          46          47          48          49          50
           51          52          53          54          55          56          57          58          59          60
           61          62          63          64          65          66          67          68          69          70
           71          72          73          74          75          76          77          78          79          80
           81          82          83          84          85          86          87          88          89          90
           91          92          93          94          95          96          97          98          99         100
 ........................................................................................................................
   1    10.00       31.68       52.10       71.32       89.40       106.4       122.3       137.3       151.2       164.3    
        176.4       187.6       198.0       207.6       216.3       224.3       231.4       237.8       243.5       248.4    
        252.6       256.1       258.9       260.9       262.3       263.0       0.000       0.000       0.000       0.000    
        0.000       0.000       0.000       0.000       0.000       0.000       0.000       0.000       0.000       0.000    
        0.000       0.000       0.000       0.000       0.000       0.000       0.000       0.000       0.000       0.000    
        0.000       0.000       0.000       0.000       0.000       0.000       0.000       0.000       0.000       0.000    
        0.000       0.000       0.000       0.000       0.000       0.000       0.000       0.000       0.000       294.8    
        294.2       293.0       291.2       288.8       285.9       282.3       278.2       273.4       268.1       262.2    
        255.7       248.5       240.8       232.5       223.5       213.9       203.8       192.9       181.5       169.3    
        156.6       143.1       129.0       114.2       98.68       82.45       65.48       47.77       29.28       10.00    
1
              HEAD IN LAYER   2 AT END OF TIME STEP   3 IN STRESS PERIOD   10
  ---------------------------------------------------------------------------

            1           2           3           4           5           6           7           8           9          10
           11          12          13          14          15          16          17          18          19          20
           21          22          23          24          25          26          27          28          29          30
           31          32          33          34          35          36          37          38          39          40
           41          42          43          44          45          46          47          48          49          50
           51          52          53          54          55          56          57          58          59          60
           61          62          63          64          65          66          67          68          69          70
           71          72          73          74          75          76          77          78          79          80
           81          82          83          84          85          86          87          88          89          90
           91          92          93          94          95          96          97          98          99         100
 ........................................................................................................................
   1    187.1       187.1       187.2       187.3       187.4       187.5       187.7       187.8       188.0       188.1    
        188.3       188.5       188.7       188.8       189.0       189.2       189.3       189.5       189.6       189.7    
        189.8       189.9       190.0       190.1       190.2       190.2       190.3       190.3       190.4       190.4    
        190.4       190.5       190.5       190.5       190.6       190.6       190.7       190.7       190.7       190.8    
        190.8       190.9       190.9       190.9       191.0       191.0       191.1       191.1       191.1       191.2    
        191.2       191.3       191.3       191.4       191.4       191.4       191.5       191.5       191.6       191.6    
        191.6       191.7       191.7       191.8       191.8       191.9       191.9       192.0       192.0       192.0    
        192.1       192.1       192.1       192.0       192.0       191.9       191.8       191.7       191.6       191.5    
        191.4       191.2       191.1       190.9       190.7       190.5       190.3       190.1       189.9       189.8    
        189.6       189.4       189.2       189.1       188.9       188.8       188.7       188.6       188.5       188.5    
1
              HEAD IN LAYER   3 AT END OF TIME STEP   3 IN STRESS PERIOD   10
  ---------------------------------------------------------------------------

            1           2           3           4           5           6           7           8           9          10
           11          12          13          14          15          16          17          18          19          20
           21          22          23          24          25          26          27          28          29          30
           31          32          33          34          35          36          37          38          39          40
           41          42          43          44          45          46          47          48          49          50
           51          52          53          54          55          56          57          58          59          60
           61          62          63          64          65          66          67          68          69          70
           71          72          73          74          75          76          77          78          79          80
           81          82          83          84          85          86          87          88          89          90
           91          92          93          94          95          96          97          98          99         100
 ........................................................................................................................
   1    190.1       190.1       190.1       190.1       190.1       190.1       190.1       190.1       190.1       190.1    
        190.1       190.1       190.1       190.1       190.1       190.1       190.1       190.2       190.2       190.2    
        190.2       190.2       190.2       190.2       190.2       190.2       190.2       190.2       190.2       190.2    
        190.2       190.2       190.3       190.3       190.3       190.3       190.3       190.3       190.3       190.3    
        190.3       190.3       190.3       190.3       190.3       190.3       190.3       190.3       190.4       190.4    
        190.4       190.4       190.4       190.4       190.4       190.4       190.4       190.4       190.4       190.4    
        190.4       190.4       190.4       190.4       190.4       190.4       190.4       190.4       190.4       190.4    
        190.4       190.4       190.4       190.4       190.4       190.4       190.4       190.4       190.4       190.4    
        190.4       190.4       190.4       190.4       190.4       190.4       190.4       190.4       190.4       190.4    
        190.4       190.4       190.4       190.4       190.4       190.4       190.4       190.4       190.4       190.4    

 HEAD WILL BE SAVED ON UNIT   51 AT END OF TIME STEP    3, STRESS PERIOD   10

 DRAWDOWN WILL BE SAVED ON UNIT   52 AT END OF TIME STEP    3, STRESS PERIOD   10
1
  VOLUMETRIC BUDGET FOR ENTIRE MODEL AT END OF TIME STEP    3, STRESS PERIOD  10
  ------------------------------------------------------------------------------

     CUMULATIVE VOLUMES      L**3       RATES FOR THIS TIME STEP      L**3/T
     ------------------                 ------------------------

           IN:                                      IN:
           ---                                      ---
             STORAGE =           0.7133               STORAGE =       4.8553E-05
       CONSTANT HEAD =           0.0000         CONSTANT HEAD =           0.0000
               WELLS =           0.0000                 WELLS =           0.0000
            RECHARGE =   114276912.0000              RECHARGE =       37620.0000
    INST. IB STORAGE =           0.9534      INST. IB STORAGE =       9.4585E-07
    DELAY IB STORAGE =           2.6844      DELAY IB STORAGE =       2.1365E-03

            TOTAL IN =   114276912.0000              TOTAL IN =       37620.0039

          OUT:                                     OUT:
          ----                                     ----
             STORAGE =           0.7318               STORAGE =       7.6827E-04
       CONSTANT HEAD =   114276912.0000         CONSTANT HEAD =       37620.0000
               WELLS =           0.0000                 WELLS =           0.0000
            RECHARGE =           0.0000              RECHARGE =           0.0000
    INST. IB STORAGE =           0.9789      INST. IB STORAGE =       1.2124E-03
    DELAY IB STORAGE =           2.5730      DELAY IB STORAGE =       8.4676E-04

           TOTAL OUT =   114276912.0000             TOTAL OUT =       37620.0000

            IN - OUT =           0.0000              IN - OUT =       3.9062E-03

 PERCENT DISCREPANCY =           0.00     PERCENT DISCREPANCY =           0.00






         TIME SUMMARY AT END OF TIME STEP    3 IN STRESS PERIOD   10
                    SECONDS     MINUTES      HOURS       DAYS        YEARS
                    -----------------------------------------------------------
   TIME STEP LENGTH 4.18152E+06  69692.      1161.5      48.397     0.13250    
 STRESS PERIOD TIME 9.87236E+06 1.64539E+05  2742.3      114.26     0.31284    
         TOTAL TIME 2.62454E+08 4.37424E+06  72904.      3037.7      8.3167    
1
 
 SOLVING FOR HEAD 
     2 ITERATIONS FOR TIME STEP   4 IN STRESS PERIOD   10

 OUTPUT CONTROL FOR STRESS PERIOD   10   TIME STEP    4
    SAVE HEAD FOR ALL LAYERS
    SAVE DRAWDOWN FOR ALL LAYERS
    SAVE BUDGET
    PRINT HEAD FOR ALL LAYERS
    PRINT BUDGET
1
              HEAD IN LAYER   1 AT END OF TIME STEP   4 IN STRESS PERIOD   10
  ---------------------------------------------------------------------------

            1           2           3           4           5           6           7           8           9          10
           11          12          13          14          15          16          17          18          19          20
           21          22          23          24          25          26          27          28          29          30
           31          32          33          34          35          36          37          38          39          40
           41          42          43          44          45          46          47          48          49          50
           51          52          53          54          55          56          57          58          59          60
           61          62          63          64          65          66          67          68          69          70
           71          72          73          74          75          76          77          78          79          80
           81          82          83          84          85          86          87          88          89          90
           91          92          93          94          95          96          97          98          99         100
 ........................................................................................................................
   1    10.00       31.68       52.10       71.32       89.40       106.4       122.3       137.3       151.2       164.3    
        176.4       187.6       198.0       207.6       216.3       224.3       231.4       237.8       243.5       248.4    
        252.6       256.1       258.9       260.9       262.3       263.0       0.000       0.000       0.000       0.000    
        0.000       0.000       0.000       0.000       0.000       0.000       0.000       0.000       0.000       0.000    
        0.000       0.000       0.000       0.000       0.000       0.000       0.000       0.000       0.000       0.000    
        0.000       0.000       0.000       0.000       0.000       0.000       0.000       0.000       0.000       0.000    
        0.000       0.000       0.000       0.000       0.000       0.000       0.000       0.000       0.000       294.8    
        294.2       293.0       291.2       288.8       285.9       282.3       278.2       273.4       268.1       262.2    
        255.7       248.5       240.8       232.5       223.5       213.9       203.8       192.9       181.5       169.3    
        156.6       143.1       129.0       114.2       98.68       82.45       65.48       47.77       29.28       10.00    
1
              HEAD IN LAYER   2 AT END OF TIME STEP   4 IN STRESS PERIOD   10
  ---------------------------------------------------------------------------

            1           2           3           4           5           6           7           8           9          10
           11          12          13          14          15          16          17          18          19          20
           21          22          23          24          25          26          27          28          29          30
           31          32          33          34          35          36          37          38          39          40
           41          42          43          44          45          46          47          48          49          50
           51          52          53          54          55          56          57          58          59          60
           61          62          63          64          65          66          67          68          69          70
           71          72          73          74          75          76          77          78          79          80
           81          82          83          84          85          86          87          88          89          90
           91          92          93          94          95          96          97          98          99         100
 ........................................................................................................................
   1    187.1       187.1       187.2       187.3       187.4       187.5       187.7       187.8       188.0       188.1    
        188.3       188.5       188.7       188.8       189.0       189.2       189.3       189.5       189.6       189.7    
        189.8       189.9       190.0       190.1       190.2       190.2       190.3       190.3       190.4       190.4    
        190.4       190.5       190.5       190.5       190.6       190.6       190.7       190.7       190.7       190.8    
        190.8       190.9       190.9       190.9       191.0       191.0       191.1       191.1       191.1       191.2    
        191.2       191.3       191.3       191.4       191.4       191.4       191.5       191.5       191.6       191.6    
        191.6       191.7       191.7       191.8       191.8       191.9       191.9       192.0       192.0       192.0    
        192.1       192.1       192.1       192.0       192.0       191.9       191.8       191.7       191.6       191.5    
        191.4       191.2       191.1       190.9       190.7       190.5       190.3       190.1       189.9       189.8    
        189.6       189.4       189.2       189.1       188.9       188.8       188.7       188.6       188.5       188.5    
1
              HEAD IN LAYER   3 AT END OF TIME STEP   4 IN STRESS PERIOD   10
  ---------------------------------------------------------------------------

            1           2           3           4           5           6           7           8           9          10
           11          12          13          14          15          16          17          18          19          20
           21          22          23          24          25          26          27          28          29          30
           31          32          33          34          35          36          37          38          39          40
           41          42          43          44          45          46          47          48          49          50
           51          52          53          54          55          56          57          58          59          60
           61          62          63          64          65          66          67          68          69          70
           71          72          73          74          75          76          77          78          79          80
           81          82          83          84          85          86          87          88          89          90
           91          92          93          94          95          96          97          98          99         100
 ........................................................................................................................
   1    190.1       190.1       190.1       190.1       190.1       190.1       190.1       190.1       190.1       190.1    
        190.1       190.1       190.1       190.1       190.1       190.1       190.1       190.1       190.2       190.2    
        190.2       190.2       190.2       190.2       190.2       190.2       190.2       190.2       190.2       190.2    
        190.2       190.2       190.3       190.3       190.3       190.3       190.3       190.3       190.3       190.3    
        190.3       190.3       190.3       190.3       190.3       190.3       190.3       190.3       190.4       190.4    
        190.4       190.4       190.4       190.4       190.4       190.4       190.4       190.4       190.4       190.4    
        190.4       190.4       190.4       190.4       190.4       190.4       190.4       190.4       190.4       190.4    
        190.4       190.4       190.4       190.4       190.4       190.4       190.4       190.4       190.4       190.4    
        190.4       190.4       190.4       190.4       190.4       190.4       190.4       190.4       190.4       190.4    
        190.4       190.4       190.4       190.4       190.4       190.4       190.4       190.4       190.4       190.4    

 HEAD WILL BE SAVED ON UNIT   51 AT END OF TIME STEP    4, STRESS PERIOD   10

 DRAWDOWN WILL BE SAVED ON UNIT   52 AT END OF TIME STEP    4, STRESS PERIOD   10
1
  VOLUMETRIC BUDGET FOR ENTIRE MODEL AT END OF TIME STEP    4, STRESS PERIOD  10
  ------------------------------------------------------------------------------

     CUMULATIVE VOLUMES      L**3       RATES FOR THIS TIME STEP      L**3/T
     ------------------                 ------------------------

           IN:                                      IN:
           ---                                      ---
             STORAGE =           0.7379               STORAGE =       3.9080E-04
       CONSTANT HEAD =           0.0000         CONSTANT HEAD =           0.0000
               WELLS =           0.0000                 WELLS =           0.0000
            RECHARGE =   116643832.0000              RECHARGE =       37620.0000
    INST. IB STORAGE =           0.9851      INST. IB STORAGE =       5.0409E-04
    DELAY IB STORAGE =           2.6891      DELAY IB STORAGE =       7.5670E-05

            TOTAL IN =   116643832.0000              TOTAL IN =       37620.0000

          OUT:                                     OUT:
          ----                                     ----
             STORAGE =           0.7318               STORAGE =           0.0000
       CONSTANT HEAD =   116643832.0000         CONSTANT HEAD =       37620.0000
               WELLS =           0.0000                 WELLS =           0.0000
            RECHARGE =           0.0000              RECHARGE =           0.0000
    INST. IB STORAGE =           0.9789      INST. IB STORAGE =           0.0000
    DELAY IB STORAGE =           2.6702      DELAY IB STORAGE =       1.5443E-03

           TOTAL OUT =   116643832.0000             TOTAL OUT =       37620.0000

            IN - OUT =           0.0000              IN - OUT =           0.0000

 PERCENT DISCREPANCY =           0.00     PERCENT DISCREPANCY =           0.00






         TIME SUMMARY AT END OF TIME STEP    4 IN STRESS PERIOD   10
                    SECONDS     MINUTES      HOURS       DAYS        YEARS
                    -----------------------------------------------------------
   TIME STEP LENGTH 5.43598E+06  90600.      1510.0      62.916     0.17226    
 STRESS PERIOD TIME 1.53083E+07 2.55139E+05  4252.3      177.18     0.48509    
         TOTAL TIME 2.67890E+08 4.46484E+06  74414.      3100.6      8.4889    
1
 
 SOLVING FOR HEAD 
     1 ITERATIONS FOR TIME STEP   5 IN STRESS PERIOD   10

 MAXIMUM HEAD CHANGE FOR EACH ITERATION:

    HEAD CHANGE   HEAD CHANGE   HEAD CHANGE   HEAD CHANGE   HEAD CHANGE
  LAYER,ROW,COL LAYER,ROW,COL LAYER,ROW,COL LAYER,ROW,COL LAYER,ROW,COL
 ----------------------------------------------------------------------
    -0.7331E-04
  (  3,  1, 86)


 OUTPUT CONTROL FOR STRESS PERIOD   10   TIME STEP    5
    SAVE HEAD FOR ALL LAYERS
    SAVE DRAWDOWN FOR ALL LAYERS
    SAVE BUDGET
    PRINT HEAD FOR ALL LAYERS
    PRINT BUDGET
1
              HEAD IN LAYER   1 AT END OF TIME STEP   5 IN STRESS PERIOD   10
  ---------------------------------------------------------------------------

            1           2           3           4           5           6           7           8           9          10
           11          12          13          14          15          16          17          18          19          20
           21          22          23          24          25          26          27          28          29          30
           31          32          33          34          35          36          37          38          39          40
           41          42          43          44          45          46          47          48          49          50
           51          52          53          54          55          56          57          58          59          60
           61          62          63          64          65          66          67          68          69          70
           71          72          73          74          75          76          77          78          79          80
           81          82          83          84          85          86          87          88          89          90
           91          92          93          94          95          96          97          98          99         100
 ........................................................................................................................
   1    10.00       31.68       52.10       71.32       89.40       106.4       122.3       137.3       151.2       164.3    
        176.4       187.6       198.0       207.6       216.3       224.3       231.4       237.8       243.5       248.4    
        252.6       256.1       258.9       260.9       262.3       263.0       0.000       0.000       0.000       0.000    
        0.000       0.000       0.000       0.000       0.000       0.000       0.000       0.000       0.000       0.000    
        0.000       0.000       0.000       0.000       0.000       0.000       0.000       0.000       0.000       0.000    
        0.000       0.000       0.000       0.000       0.000       0.000       0.000       0.000       0.000       0.000    
        0.000       0.000       0.000       0.000       0.000       0.000       0.000       0.000       0.000       294.8    
        294.2       293.0       291.2       288.8       285.9       282.3       278.2       273.4       268.1       262.2    
        255.7       248.5       240.8       232.5       223.5       213.9       203.8       192.9       181.5       169.3    
        156.6       143.1       129.0       114.2       98.68       82.45       65.48       47.77       29.28       10.00    
1
              HEAD IN LAYER   2 AT END OF TIME STEP   5 IN STRESS PERIOD   10
  ---------------------------------------------------------------------------

            1           2           3           4           5           6           7           8           9          10
           11          12          13          14          15          16          17          18          19          20
           21          22          23          24          25          26          27          28          29          30
           31          32          33          34          35          36          37          38          39          40
           41          42          43          44          45          46          47          48          49          50
           51          52          53          54          55          56          57          58          59          60
           61          62          63          64          65          66          67          68          69          70
           71          72          73          74          75          76          77          78          79          80
           81          82          83          84          85          86          87          88          89          90
           91          92          93          94          95          96          97          98          99         100
 ........................................................................................................................
   1    187.1       187.1       187.2       187.3       187.4       187.5       187.7       187.8       188.0       188.1    
        188.3       188.5       188.7       188.8       189.0       189.2       189.3       189.5       189.6       189.7    
        189.8       189.9       190.0       190.1       190.2       190.2       190.3       190.3       190.4       190.4    
        190.4       190.5       190.5       190.5       190.6       190.6       190.7       190.7       190.7       190.8    
        190.8       190.9       190.9       190.9       191.0       191.0       191.1       191.1       191.1       191.2    
        191.2       191.3       191.3       191.4       191.4       191.4       191.5       191.5       191.6       191.6    
        191.6       191.7       191.7       191.8       191.8       191.9       191.9       192.0       192.0       192.0    
        192.1       192.1       192.1       192.0       192.0       191.9       191.8       191.7       191.6       191.5    
        191.4       191.2       191.1       190.9       190.7       190.5       190.3       190.1       189.9       189.8    
        189.6       189.4       189.2       189.1       188.9       188.8       188.7       188.6       188.5       188.5    
1
              HEAD IN LAYER   3 AT END OF TIME STEP   5 IN STRESS PERIOD   10
  ---------------------------------------------------------------------------

            1           2           3           4           5           6           7           8           9          10
           11          12          13          14          15          16          17          18          19          20
           21          22          23          24          25          26          27          28          29          30
           31          32          33          34          35          36          37          38          39          40
           41          42          43          44          45          46          47          48          49          50
           51          52          53          54          55          56          57          58          59          60
           61          62          63          64          65          66          67          68          69          70
           71          72          73          74          75          76          77          78          79          80
           81          82          83          84          85          86          87          88          89          90
           91          92          93          94          95          96          97          98          99         100
 ........................................................................................................................
   1    190.1       190.1       190.1       190.1       190.1       190.1       190.1       190.1       190.1       190.1    
        190.1       190.1       190.1       190.1       190.1       190.1       190.1       190.1       190.2       190.2    
        190.2       190.2       190.2       190.2       190.2       190.2       190.2       190.2       190.2       190.2    
        190.2       190.2       190.3       190.3       190.3       190.3       190.3       190.3       190.3       190.3    
        190.3       190.3       190.3       190.3       190.3       190.3       190.3       190.3       190.4       190.4    
        190.4       190.4       190.4       190.4       190.4       190.4       190.4       190.4       190.4       190.4    
        190.4       190.4       190.4       190.4       190.4       190.4       190.4       190.4       190.4       190.4    
        190.4       190.4       190.4       190.4       190.4       190.4       190.4       190.4       190.4       190.4    
        190.4       190.4       190.4       190.4       190.4       190.4       190.4       190.4       190.4       190.4    
        190.4       190.4       190.4       190.4       190.4       190.4       190.4       190.4       190.4       190.4    

 HEAD WILL BE SAVED ON UNIT   51 AT END OF TIME STEP    5, STRESS PERIOD   10

 DRAWDOWN WILL BE SAVED ON UNIT   52 AT END OF TIME STEP    5, STRESS PERIOD   10
1
  VOLUMETRIC BUDGET FOR ENTIRE MODEL AT END OF TIME STEP    5, STRESS PERIOD  10
  ------------------------------------------------------------------------------

     CUMULATIVE VOLUMES      L**3       RATES FOR THIS TIME STEP      L**3/T
     ------------------                 ------------------------

           IN:                                      IN:
           ---                                      ---
             STORAGE =           0.7468               STORAGE =       1.0894E-04
       CONSTANT HEAD =           0.0000         CONSTANT HEAD =           0.0000
               WELLS =           0.0000                 WELLS =           0.0000
            RECHARGE =   119720824.0000              RECHARGE =       37620.0000
    INST. IB STORAGE =           0.9997      INST. IB STORAGE =       1.7835E-04
    DELAY IB STORAGE =           2.7189      DELAY IB STORAGE =       3.6385E-04

            TOTAL IN =   119720824.0000              TOTAL IN =       37620.0000

          OUT:                                     OUT:
          ----                                     ----
             STORAGE =           0.7371               STORAGE =       6.4642E-05
       CONSTANT HEAD =   119720824.0000         CONSTANT HEAD =       37620.0000
               WELLS =           0.0000                 WELLS =           0.0000
            RECHARGE =           0.0000              RECHARGE =           0.0000
    INST. IB STORAGE =           0.9791      INST. IB STORAGE =       1.6790E-06
    DELAY IB STORAGE =           2.7172      DELAY IB STORAGE =       5.7539E-04

           TOTAL OUT =   119720824.0000             TOTAL OUT =       37620.0000

            IN - OUT =           0.0000              IN - OUT =           0.0000

 PERCENT DISCREPANCY =           0.00     PERCENT DISCREPANCY =           0.00






         TIME SUMMARY AT END OF TIME STEP    5 IN STRESS PERIOD   10
                    SECONDS     MINUTES      HOURS       DAYS        YEARS
                    -----------------------------------------------------------
   TIME STEP LENGTH 7.06678E+06 1.17780E+05  1963.0      81.791     0.22393    
 STRESS PERIOD TIME 2.23751E+07 3.72919E+05  6215.3      258.97     0.70902    
         TOTAL TIME 2.74957E+08 4.58262E+06  76377.      3182.4      8.7129    
1
 
 SOLVING FOR HEAD 
     2 ITERATIONS FOR TIME STEP   6 IN STRESS PERIOD   10

 MAXIMUM HEAD CHANGE FOR EACH ITERATION:

    HEAD CHANGE   HEAD CHANGE   HEAD CHANGE   HEAD CHANGE   HEAD CHANGE
  LAYER,ROW,COL LAYER,ROW,COL LAYER,ROW,COL LAYER,ROW,COL LAYER,ROW,COL
 ----------------------------------------------------------------------
     0.1356E-03    0.5731E-04
  (  3,  1,  8) (  2,  1, 42)


 OUTPUT CONTROL FOR STRESS PERIOD   10   TIME STEP    6
    SAVE HEAD FOR ALL LAYERS
    SAVE DRAWDOWN FOR ALL LAYERS
    SAVE BUDGET
    PRINT HEAD FOR ALL LAYERS
    PRINT BUDGET
1
              HEAD IN LAYER   1 AT END OF TIME STEP   6 IN STRESS PERIOD   10
  ---------------------------------------------------------------------------

            1           2           3           4           5           6           7           8           9          10
           11          12          13          14          15          16          17          18          19          20
           21          22          23          24          25          26          27          28          29          30
           31          32          33          34          35          36          37          38          39          40
           41          42          43          44          45          46          47          48          49          50
           51          52          53          54          55          56          57          58          59          60
           61          62          63          64          65          66          67          68          69          70
           71          72          73          74          75          76          77          78          79          80
           81          82          83          84          85          86          87          88          89          90
           91          92          93          94          95          96          97          98          99         100
 ........................................................................................................................
   1    10.00       31.68       52.10       71.32       89.40       106.4       122.3       137.3       151.2       164.3    
        176.4       187.6       198.0       207.6       216.3       224.3       231.4       237.8       243.5       248.4    
        252.6       256.1       258.9       260.9       262.3       263.0       0.000       0.000       0.000       0.000    
        0.000       0.000       0.000       0.000       0.000       0.000       0.000       0.000       0.000       0.000    
        0.000       0.000       0.000       0.000       0.000       0.000       0.000       0.000       0.000       0.000    
        0.000       0.000       0.000       0.000       0.000       0.000       0.000       0.000       0.000       0.000    
        0.000       0.000       0.000       0.000       0.000       0.000       0.000       0.000       0.000       294.8    
        294.2       293.0       291.2       288.8       285.9       282.3       278.2       273.4       268.1       262.2    
        255.7       248.5       240.8       232.5       223.5       213.9       203.8       192.9       181.5       169.3    
        156.6       143.1       129.0       114.2       98.68       82.45       65.48       47.77       29.28       10.00    
1
              HEAD IN LAYER   2 AT END OF TIME STEP   6 IN STRESS PERIOD   10
  ---------------------------------------------------------------------------

            1           2           3           4           5           6           7           8           9          10
           11          12          13          14          15          16          17          18          19          20
           21          22          23          24          25          26          27          28          29          30
           31          32          33          34          35          36          37          38          39          40
           41          42          43          44          45          46          47          48          49          50
           51          52          53          54          55          56          57          58          59          60
           61          62          63          64          65          66          67          68          69          70
           71          72          73          74          75          76          77          78          79          80
           81          82          83          84          85          86          87          88          89          90
           91          92          93          94          95          96          97          98          99         100
 ........................................................................................................................
   1    187.1       187.1       187.2       187.3       187.4       187.5       187.7       187.8       188.0       188.1    
        188.3       188.5       188.7       188.8       189.0       189.2       189.3       189.5       189.6       189.7    
        189.8       189.9       190.0       190.1       190.2       190.2       190.3       190.3       190.4       190.4    
        190.4       190.5       190.5       190.5       190.6       190.6       190.7       190.7       190.7       190.8    
        190.8       190.9       190.9       190.9       191.0       191.0       191.1       191.1       191.1       191.2    
        191.2       191.3       191.3       191.4       191.4       191.4       191.5       191.5       191.6       191.6    
        191.6       191.7       191.7       191.8       191.8       191.9       191.9       192.0       192.0       192.0    
        192.1       192.1       192.1       192.0       192.0       191.9       191.8       191.7       191.6       191.5    
        191.4       191.2       191.1       190.9       190.7       190.5       190.3       190.1       189.9       189.8    
        189.6       189.4       189.2       189.1       188.9       188.8       188.7       188.6       188.5       188.5    
1
              HEAD IN LAYER   3 AT END OF TIME STEP   6 IN STRESS PERIOD   10
  ---------------------------------------------------------------------------

            1           2           3           4           5           6           7           8           9          10
           11          12          13          14          15          16          17          18          19          20
           21          22          23          24          25          26          27          28          29          30
           31          32          33          34          35          36          37          38          39          40
           41          42          43          44          45          46          47          48          49          50
           51          52          53          54          55          56          57          58          59          60
           61          62          63          64          65          66          67          68          69          70
           71          72          73          74          75          76          77          78          79          80
           81          82          83          84          85          86          87          88          89          90
           91          92          93          94          95          96          97          98          99         100
 ........................................................................................................................
   1    190.1       190.1       190.1       190.1       190.1       190.1       190.1       190.1       190.1       190.1    
        190.1       190.1       190.1       190.1       190.1       190.1       190.1       190.1       190.2       190.2    
        190.2       190.2       190.2       190.2       190.2       190.2       190.2       190.2       190.2       190.2    
        190.2       190.2       190.3       190.3       190.3       190.3       190.3       190.3       190.3       190.3    
        190.3       190.3       190.3       190.3       190.3       190.3       190.3       190.3       190.4       190.4    
        190.4       190.4       190.4       190.4       190.4       190.4       190.4       190.4       190.4       190.4    
        190.4       190.4       190.4       190.4       190.4       190.4       190.4       190.4       190.4       190.4    
        190.4       190.4       190.4       190.4       190.4       190.4       190.4       190.4       190.4       190.4    
        190.4       190.4       190.4       190.4       190.4       190.4       190.4       190.4       190.4       190.4    
        190.4       190.4       190.4       190.4       190.4       190.4       190.4       190.4       190.4       190.4    

 HEAD WILL BE SAVED ON UNIT   51 AT END OF TIME STEP    6, STRESS PERIOD   10

 DRAWDOWN WILL BE SAVED ON UNIT   52 AT END OF TIME STEP    6, STRESS PERIOD   10
1
  VOLUMETRIC BUDGET FOR ENTIRE MODEL AT END OF TIME STEP    6, STRESS PERIOD  10
  ------------------------------------------------------------------------------

     CUMULATIVE VOLUMES      L**3       RATES FOR THIS TIME STEP      L**3/T
     ------------------                 ------------------------

           IN:                                      IN:
           ---                                      ---
             STORAGE =           0.7509               STORAGE =       3.8675E-05
       CONSTANT HEAD =           0.0000         CONSTANT HEAD =           0.0000
               WELLS =           0.0000                 WELLS =           0.0000
            RECHARGE =   123720912.0000              RECHARGE =       37620.0000
    INST. IB STORAGE =           0.9998      INST. IB STORAGE =       8.6103E-07
    DELAY IB STORAGE =           2.8236      DELAY IB STORAGE =       9.8480E-04

            TOTAL IN =   123720912.0000              TOTAL IN =       37620.0000

          OUT:                                     OUT:
          ----                                     ----
             STORAGE =           0.7609               STORAGE =       2.2355E-04
       CONSTANT HEAD =   123720912.0000         CONSTANT HEAD =       37620.0000
               WELLS =           0.0000                 WELLS =           0.0000
            RECHARGE =           0.0000              RECHARGE =           0.0000
    INST. IB STORAGE =           1.0124      INST. IB STORAGE =       3.1313E-04
    DELAY IB STORAGE =           2.7229      DELAY IB STORAGE =       5.3581E-05

           TOTAL OUT =   123720912.0000             TOTAL OUT =       37620.0000

            IN - OUT =           0.0000              IN - OUT =           0.0000

 PERCENT DISCREPANCY =           0.00     PERCENT DISCREPANCY =           0.00






         TIME SUMMARY AT END OF TIME STEP    6 IN STRESS PERIOD   10
                    SECONDS     MINUTES      HOURS       DAYS        YEARS
                    -----------------------------------------------------------
   TIME STEP LENGTH 9.18681E+06 1.53113E+05  2551.9      106.33     0.29111    
 STRESS PERIOD TIME 3.15619E+07 5.26032E+05  8767.2      365.30      1.0001    
         TOTAL TIME 2.84144E+08 4.73573E+06  78929.      3288.7      9.0040    
1

                               VOLUMETRIC BUDGET FOR SYSTEMS OF DELAY INTERBEDS
                                          AT END OF TIME STEP  6 IN STRESS PERIOD 10

          |   C U M U L A T I V E   V O L U M E S   L**3           | R A T E S   F O R  T H I S  T I M E  S T E P   L**3/T  |
   SYSTEM |    CHANGE IN     BOUNDARY                    PERCENT   |    CHANGE IN     BOUNDARY                    PERCENT   |
   NUMBER |     STORAGE        FLOW           SUM      DISCREPANCY |     STORAGE        FLOW           SUM      DISCREPANCY |
  --------|--------------------------------------------------------|--------------------------------------------------------|
      1    0.29906E-01   -0.29906E-01   -0.20489E-07   -0.68512E-04    0.29925E-03   -0.29925E-03   -0.29104E-10   -0.97256E-05
      2    0.70759E-01   -0.70759E-01   -0.17881E-06   -0.25271E-03    0.63197E-03   -0.63197E-03   -0.34925E-09   -0.55263E-04
  --------|--------------------------------------------------------|--------------------------------------------------------|
 TOTALS:    0.10066       -0.10067       -0.20117E-06   -0.19984E-03    0.93122E-03   -0.93122E-03   -0.40745E-09   -0.43755E-04
1
                            STRESS PERIOD NO.   11, LENGTH =   365.3000    
                            -----------------------------------------------

                              NUMBER OF TIME STEPS =     6

                               MULTIPLIER FOR DELT =     1.300

                            INITIAL TIME STEP SIZE =   28.63744    

 WELL NO.  LAYER   ROW   COL   STRESS RATE         
 --------------------------------------------------
      1      1      1     50     -0.1532E+06

      1 WELL 

 REUSING RECH FROM LAST STRESS PERIOD
 
 SOLVING FOR HEAD 

     2 ITERATIONS FOR TIME STEP   1 IN STRESS PERIOD   11

 OUTPUT CONTROL FOR STRESS PERIOD   11   TIME STEP    1
    SAVE HEAD FOR ALL LAYERS
    SAVE DRAWDOWN FOR ALL LAYERS
    SAVE BUDGET
    PRINT HEAD FOR ALL LAYERS
    PRINT BUDGET
1
              HEAD IN LAYER   1 AT END OF TIME STEP   1 IN STRESS PERIOD   11
  ---------------------------------------------------------------------------

            1           2           3           4           5           6           7           8           9          10
           11          12          13          14          15          16          17          18          19          20
           21          22          23          24          25          26          27          28          29          30
           31          32          33          34          35          36          37          38          39          40
           41          42          43          44          45          46          47          48          49          50
           51          52          53          54          55          56          57          58          59          60
           61          62          63          64          65          66          67          68          69          70
           71          72          73          74          75          76          77          78          79          80
           81          82          83          84          85          86          87          88          89          90
           91          92          93          94          95          96          97          98          99         100
 ........................................................................................................................
   1    10.00       31.68       52.10       71.32       89.40       106.4       122.3       137.3       151.2       164.3    
        176.4       187.6       198.0       207.6       216.3       224.3       231.4       237.8       243.5       248.4    
        252.6       256.1       258.9       260.9       262.3       263.0       0.000       0.000       0.000       0.000    
        0.000       0.000       0.000       0.000       0.000       0.000       0.000       0.000       0.000       0.000    
        0.000       0.000       0.000       0.000       0.000       0.000       0.000       0.000       0.000       0.000    
        0.000       0.000       0.000       0.000       0.000       0.000       0.000       0.000       0.000       0.000    
        0.000       0.000       0.000       0.000       0.000       0.000       0.000       0.000       0.000       294.8    
        294.2       293.0       291.2       288.8       285.9       282.3       278.2       273.4       268.1       262.2    
        255.7       248.5       240.8       232.5       223.5       213.9       203.8       192.9       181.5       169.3    
        156.6       143.1       129.0       114.2       98.68       82.45       65.48       47.77       29.28       10.00    
1
              HEAD IN LAYER   2 AT END OF TIME STEP   1 IN STRESS PERIOD   11
  ---------------------------------------------------------------------------

            1           2           3           4           5           6           7           8           9          10
           11          12          13          14          15          16          17          18          19          20
           21          22          23          24          25          26          27          28          29          30
           31          32          33          34          35          36          37          38          39          40
           41          42          43          44          45          46          47          48          49          50
           51          52          53          54          55          56          57          58          59          60
           61          62          63          64          65          66          67          68          69          70
           71          72          73          74          75          76          77          78          79          80
           81          82          83          84          85          86          87          88          89          90
           91          92          93          94          95          96          97          98          99         100
 ........................................................................................................................
   1    187.1       187.1       187.2       187.3       187.4       187.5       187.7       187.8       188.0       188.1    
        188.3       188.5       188.7       188.8       189.0       189.2       189.3       189.5       189.6       189.7    
        189.8       189.9       190.0       190.1       190.2       190.2       190.3       190.3       190.4       190.4    
        190.4       190.5       190.5       190.5       190.6       190.6       190.7       190.7       190.7       190.8    
        190.8       190.9       190.9       190.9       191.0       191.0       191.1       191.1       191.1       191.2    
        191.2       191.3       191.3       191.4       191.4       191.4       191.5       191.5       191.6       191.6    
        191.6       191.7       191.7       191.8       191.8       191.9       191.9       192.0       192.0       192.0    
        192.1       192.1       192.1       192.0       192.0       191.9       191.8       191.7       191.6       191.5    
        191.4       191.2       191.1       190.9       190.7       190.5       190.3       190.1       189.9       189.8    
        189.6       189.4       189.2       189.1       188.9       188.8       188.7       188.6       188.5       188.5    
1
              HEAD IN LAYER   3 AT END OF TIME STEP   1 IN STRESS PERIOD   11
  ---------------------------------------------------------------------------

            1           2           3           4           5           6           7           8           9          10
           11          12          13          14          15          16          17          18          19          20
           21          22          23          24          25          26          27          28          29          30
           31          32          33          34          35          36          37          38          39          40
           41          42          43          44          45          46          47          48          49          50
           51          52          53          54          55          56          57          58          59          60
           61          62          63          64          65          66          67          68          69          70
           71          72          73          74          75          76          77          78          79          80
           81          82          83          84          85          86          87          88          89          90
           91          92          93          94          95          96          97          98          99         100
 ........................................................................................................................
   1    190.1       190.1       190.1       190.1       190.1       190.1       190.1       190.1       190.1       190.1    
        190.1       190.1       190.1       190.1       190.1       190.1       190.1       190.1       190.2       190.2    
        190.2       190.2       190.2       190.2       190.2       190.2       190.2       190.2       190.2       190.2    
        190.2       190.2       190.3       190.3       190.3       190.3       190.3       190.3       190.3       190.3    
        190.3       190.3       190.3       190.3       190.3       190.3       190.3       190.3       190.4       190.4    
        190.4       190.4       190.4       190.4       190.4       190.4       190.4       190.4       190.4       190.4    
        190.4       190.4       190.4       190.4       190.4       190.4       190.4       190.4       190.4       190.4    
        190.4       190.4       190.4       190.4       190.4       190.4       190.4       190.4       190.4       190.4    
        190.4       190.4       190.4       190.4       190.4       190.4       190.4       190.4       190.4       190.4    
        190.4       190.4       190.4       190.4       190.4       190.4       190.4       190.4       190.4       190.4    

 HEAD WILL BE SAVED ON UNIT   51 AT END OF TIME STEP    1, STRESS PERIOD   11

 DRAWDOWN WILL BE SAVED ON UNIT   52 AT END OF TIME STEP    1, STRESS PERIOD   11
1
  VOLUMETRIC BUDGET FOR ENTIRE MODEL AT END OF TIME STEP    1, STRESS PERIOD  11
  ------------------------------------------------------------------------------

     CUMULATIVE VOLUMES      L**3       RATES FOR THIS TIME STEP      L**3/T
     ------------------                 ------------------------

           IN:                                      IN:
           ---                                      ---
             STORAGE =           0.7919               STORAGE =       1.4292E-03
       CONSTANT HEAD =           0.0000         CONSTANT HEAD =           0.0000
               WELLS =           0.0000                 WELLS =           0.0000
            RECHARGE =   124798256.0000              RECHARGE =       37620.0000
    INST. IB STORAGE =           1.0642      INST. IB STORAGE =       2.2491E-03
    DELAY IB STORAGE =           2.8354      DELAY IB STORAGE =       4.1208E-04

            TOTAL IN =   124798256.0000              TOTAL IN =       37620.0039

          OUT:                                     OUT:
          ----                                     ----
             STORAGE =           0.7612               STORAGE =       1.0257E-05
       CONSTANT HEAD =   124798256.0000         CONSTANT HEAD =       37620.0000
               WELLS =           0.0000                 WELLS =           0.0000
            RECHARGE =           0.0000              RECHARGE =           0.0000
    INST. IB STORAGE =           1.0124      INST. IB STORAGE =       2.6641E-07
    DELAY IB STORAGE =           2.8359      DELAY IB STORAGE =       3.9438E-03

           TOTAL OUT =   124798256.0000             TOTAL OUT =       37620.0039

            IN - OUT =           0.0000              IN - OUT =           0.0000

 PERCENT DISCREPANCY =           0.00     PERCENT DISCREPANCY =           0.00






         TIME SUMMARY AT END OF TIME STEP    1 IN STRESS PERIOD   11
                    SECONDS     MINUTES      HOURS       DAYS        YEARS
                    -----------------------------------------------------------
   TIME STEP LENGTH 2.47427E+06  41238.      687.30      28.637     7.84050E-02
 STRESS PERIOD TIME 2.47427E+06  41238.      687.30      28.637     7.84050E-02
         TOTAL TIME 2.86618E+08 4.77697E+06  79616.      3317.3      9.0824    
1
 
 SOLVING FOR HEAD 
     2 ITERATIONS FOR TIME STEP   2 IN STRESS PERIOD   11

 OUTPUT CONTROL FOR STRESS PERIOD   11   TIME STEP    2
    SAVE HEAD FOR ALL LAYERS
    SAVE DRAWDOWN FOR ALL LAYERS
    SAVE BUDGET
    PRINT HEAD FOR ALL LAYERS
    PRINT BUDGET
1
              HEAD IN LAYER   1 AT END OF TIME STEP   2 IN STRESS PERIOD   11
  ---------------------------------------------------------------------------

            1           2           3           4           5           6           7           8           9          10
           11          12          13          14          15          16          17          18          19          20
           21          22          23          24          25          26          27          28          29          30
           31          32          33          34          35          36          37          38          39          40
           41          42          43          44          45          46          47          48          49          50
           51          52          53          54          55          56          57          58          59          60
           61          62          63          64          65          66          67          68          69          70
           71          72          73          74          75          76          77          78          79          80
           81          82          83          84          85          86          87          88          89          90
           91          92          93          94          95          96          97          98          99         100
 ........................................................................................................................
   1    10.00       31.68       52.10       71.32       89.40       106.4       122.3       137.3       151.2       164.3    
        176.4       187.6       198.0       207.6       216.3       224.3       231.4       237.8       243.5       248.4    
        252.6       256.1       258.9       260.9       262.3       263.0       0.000       0.000       0.000       0.000    
        0.000       0.000       0.000       0.000       0.000       0.000       0.000       0.000       0.000       0.000    
        0.000       0.000       0.000       0.000       0.000       0.000       0.000       0.000       0.000       0.000    
        0.000       0.000       0.000       0.000       0.000       0.000       0.000       0.000       0.000       0.000    
        0.000       0.000       0.000       0.000       0.000       0.000       0.000       0.000       0.000       294.8    
        294.2       293.0       291.2       288.8       285.9       282.3       278.2       273.4       268.1       262.2    
        255.7       248.5       240.8       232.5       223.5       213.9       203.8       192.9       181.5       169.3    
        156.6       143.1       129.0       114.2       98.68       82.45       65.48       47.77       29.28       10.00    
1
              HEAD IN LAYER   2 AT END OF TIME STEP   2 IN STRESS PERIOD   11
  ---------------------------------------------------------------------------

            1           2           3           4           5           6           7           8           9          10
           11          12          13          14          15          16          17          18          19          20
           21          22          23          24          25          26          27          28          29          30
           31          32          33          34          35          36          37          38          39          40
           41          42          43          44          45          46          47          48          49          50
           51          52          53          54          55          56          57          58          59          60
           61          62          63          64          65          66          67          68          69          70
           71          72          73          74          75          76          77          78          79          80
           81          82          83          84          85          86          87          88          89          90
           91          92          93          94          95          96          97          98          99         100
 ........................................................................................................................
   1    187.1       187.1       187.2       187.3       187.4       187.5       187.7       187.8       188.0       188.1    
        188.3       188.5       188.7       188.8       189.0       189.2       189.3       189.5       189.6       189.7    
        189.8       189.9       190.0       190.1       190.2       190.2       190.3       190.3       190.4       190.4    
        190.4       190.5       190.5       190.5       190.6       190.6       190.7       190.7       190.7       190.8    
        190.8       190.9       190.9       190.9       191.0       191.0       191.1       191.1       191.1       191.2    
        191.2       191.3       191.3       191.4       191.4       191.4       191.5       191.5       191.6       191.6    
        191.6       191.7       191.7       191.8       191.8       191.9       191.9       192.0       192.0       192.0    
        192.1       192.1       192.1       192.0       192.0       191.9       191.8       191.7       191.6       191.5    
        191.4       191.2       191.1       190.9       190.7       190.5       190.3       190.1       189.9       189.8    
        189.6       189.4       189.2       189.1       188.9       188.8       188.7       188.6       188.5       188.5    
1
              HEAD IN LAYER   3 AT END OF TIME STEP   2 IN STRESS PERIOD   11
  ---------------------------------------------------------------------------

            1           2           3           4           5           6           7           8           9          10
           11          12          13          14          15          16          17          18          19          20
           21          22          23          24          25          26          27          28          29          30
           31          32          33          34          35          36          37          38          39          40
           41          42          43          44          45          46          47          48          49          50
           51          52          53          54          55          56          57          58          59          60
           61          62          63          64          65          66          67          68          69          70
           71          72          73          74          75          76          77          78          79          80
           81          82          83          84          85          86          87          88          89          90
           91          92          93          94          95          96          97          98          99         100
 ........................................................................................................................
   1    190.1       190.1       190.1       190.1       190.1       190.1       190.1       190.1       190.1       190.1    
        190.1       190.1       190.1       190.1       190.1       190.1       190.1       190.1       190.2       190.2    
        190.2       190.2       190.2       190.2       190.2       190.2       190.2       190.2       190.2       190.2    
        190.2       190.2       190.3       190.3       190.3       190.3       190.3       190.3       190.3       190.3    
        190.3       190.3       190.3       190.3       190.3       190.3       190.3       190.3       190.4       190.4    
        190.4       190.4       190.4       190.4       190.4       190.4       190.4       190.4       190.4       190.4    
        190.4       190.4       190.4       190.4       190.4       190.4       190.4       190.4       190.4       190.4    
        190.4       190.4       190.4       190.4       190.4       190.4       190.4       190.4       190.4       190.4    
        190.4       190.4       190.4       190.4       190.4       190.4       190.4       190.4       190.4       190.4    
        190.4       190.4       190.4       190.4       190.4       190.4       190.4       190.4       190.4       190.4    

 HEAD WILL BE SAVED ON UNIT   51 AT END OF TIME STEP    2, STRESS PERIOD   11

 DRAWDOWN WILL BE SAVED ON UNIT   52 AT END OF TIME STEP    2, STRESS PERIOD   11
1
  VOLUMETRIC BUDGET FOR ENTIRE MODEL AT END OF TIME STEP    2, STRESS PERIOD  11
  ------------------------------------------------------------------------------

     CUMULATIVE VOLUMES      L**3       RATES FOR THIS TIME STEP      L**3/T
     ------------------                 ------------------------

           IN:                                      IN:
           ---                                      ---
             STORAGE =           0.7960               STORAGE =       1.1126E-04
       CONSTANT HEAD =           0.0000         CONSTANT HEAD =           0.0000
               WELLS =           0.0000                 WELLS =           0.0000
            RECHARGE =   126198800.0000              RECHARGE =       37620.0000
    INST. IB STORAGE =           1.0662      INST. IB STORAGE =       5.5537E-05
    DELAY IB STORAGE =           2.8912      DELAY IB STORAGE =       1.4978E-03

            TOTAL IN =   126198800.0000              TOTAL IN =       37620.0000

          OUT:                                     OUT:
          ----                                     ----
             STORAGE =           0.7797               STORAGE =       4.9676E-04
       CONSTANT HEAD =   126198800.0000         CONSTANT HEAD =       37620.0000
               WELLS =           0.0000                 WELLS =           0.0000
            RECHARGE =           0.0000              RECHARGE =           0.0000
    INST. IB STORAGE =           1.0331      INST. IB STORAGE =       5.5742E-04
    DELAY IB STORAGE =           2.8405      DELAY IB STORAGE =       1.2474E-04

           TOTAL OUT =   126198800.0000             TOTAL OUT =       37620.0000

            IN - OUT =           0.0000              IN - OUT =           0.0000

 PERCENT DISCREPANCY =           0.00     PERCENT DISCREPANCY =           0.00






         TIME SUMMARY AT END OF TIME STEP    2 IN STRESS PERIOD   11
                    SECONDS     MINUTES      HOURS       DAYS        YEARS
                    -----------------------------------------------------------
   TIME STEP LENGTH 3.21656E+06  53609.      893.49      37.229     0.10193    
 STRESS PERIOD TIME 5.69083E+06  94847.      1580.8      65.866     0.18033    
         TOTAL TIME 2.89835E+08 4.83058E+06  80510.      3354.6      9.1843    
1
 
 SOLVING FOR HEAD 
     2 ITERATIONS FOR TIME STEP   3 IN STRESS PERIOD   11

 OUTPUT CONTROL FOR STRESS PERIOD   11   TIME STEP    3
    SAVE HEAD FOR ALL LAYERS
    SAVE DRAWDOWN FOR ALL LAYERS
    SAVE BUDGET
    PRINT HEAD FOR ALL LAYERS
    PRINT BUDGET
1
              HEAD IN LAYER   1 AT END OF TIME STEP   3 IN STRESS PERIOD   11
  ---------------------------------------------------------------------------

            1           2           3           4           5           6           7           8           9          10
           11          12          13          14          15          16          17          18          19          20
           21          22          23          24          25          26          27          28          29          30
           31          32          33          34          35          36          37          38          39          40
           41          42          43          44          45          46          47          48          49          50
           51          52          53          54          55          56          57          58          59          60
           61          62          63          64          65          66          67          68          69          70
           71          72          73          74          75          76          77          78          79          80
           81          82          83          84          85          86          87          88          89          90
           91          92          93          94          95          96          97          98          99         100
 ........................................................................................................................
   1    10.00       31.68       52.10       71.32       89.40       106.4       122.3       137.3       151.2       164.3    
        176.4       187.6       198.0       207.6       216.3       224.3       231.4       237.8       243.5       248.4    
        252.6       256.1       258.9       260.9       262.3       263.0       0.000       0.000       0.000       0.000    
        0.000       0.000       0.000       0.000       0.000       0.000       0.000       0.000       0.000       0.000    
        0.000       0.000       0.000       0.000       0.000       0.000       0.000       0.000       0.000       0.000    
        0.000       0.000       0.000       0.000       0.000       0.000       0.000       0.000       0.000       0.000    
        0.000       0.000       0.000       0.000       0.000       0.000       0.000       0.000       0.000       294.8    
        294.2       293.0       291.2       288.8       285.9       282.3       278.2       273.4       268.1       262.2    
        255.7       248.5       240.8       232.5       223.5       213.9       203.8       192.9       181.5       169.3    
        156.6       143.1       129.0       114.2       98.68       82.45       65.48       47.77       29.28       10.00    
1
              HEAD IN LAYER   2 AT END OF TIME STEP   3 IN STRESS PERIOD   11
  ---------------------------------------------------------------------------

            1           2           3           4           5           6           7           8           9          10
           11          12          13          14          15          16          17          18          19          20
           21          22          23          24          25          26          27          28          29          30
           31          32          33          34          35          36          37          38          39          40
           41          42          43          44          45          46          47          48          49          50
           51          52          53          54          55          56          57          58          59          60
           61          62          63          64          65          66          67          68          69          70
           71          72          73          74          75          76          77          78          79          80
           81          82          83          84          85          86          87          88          89          90
           91          92          93          94          95          96          97          98          99         100
 ........................................................................................................................
   1    187.1       187.1       187.2       187.3       187.4       187.5       187.7       187.8       188.0       188.1    
        188.3       188.5       188.7       188.8       189.0       189.2       189.3       189.5       189.6       189.7    
        189.8       189.9       190.0       190.1       190.2       190.2       190.3       190.3       190.4       190.4    
        190.4       190.5       190.5       190.5       190.6       190.6       190.7       190.7       190.7       190.8    
        190.8       190.9       190.9       190.9       191.0       191.0       191.1       191.1       191.1       191.2    
        191.2       191.3       191.3       191.4       191.4       191.4       191.5       191.5       191.6       191.6    
        191.6       191.7       191.7       191.8       191.8       191.9       191.9       192.0       192.0       192.0    
        192.1       192.1       192.1       192.0       192.0       191.9       191.8       191.7       191.6       191.5    
        191.4       191.2       191.1       190.9       190.7       190.5       190.3       190.1       189.9       189.8    
        189.6       189.4       189.2       189.1       188.9       188.8       188.7       188.6       188.5       188.5    
1
              HEAD IN LAYER   3 AT END OF TIME STEP   3 IN STRESS PERIOD   11
  ---------------------------------------------------------------------------

            1           2           3           4           5           6           7           8           9          10
           11          12          13          14          15          16          17          18          19          20
           21          22          23          24          25          26          27          28          29          30
           31          32          33          34          35          36          37          38          39          40
           41          42          43          44          45          46          47          48          49          50
           51          52          53          54          55          56          57          58          59          60
           61          62          63          64          65          66          67          68          69          70
           71          72          73          74          75          76          77          78          79          80
           81          82          83          84          85          86          87          88          89          90
           91          92          93          94          95          96          97          98          99         100
 ........................................................................................................................
   1    190.1       190.1       190.1       190.1       190.1       190.1       190.1       190.1       190.1       190.1    
        190.1       190.1       190.1       190.1       190.1       190.1       190.1       190.2       190.2       190.2    
        190.2       190.2       190.2       190.2       190.2       190.2       190.2       190.2       190.2       190.2    
        190.2       190.2       190.3       190.3       190.3       190.3       190.3       190.3       190.3       190.3    
        190.3       190.3       190.3       190.3       190.3       190.3       190.3       190.3       190.4       190.4    
        190.4       190.4       190.4       190.4       190.4       190.4       190.4       190.4       190.4       190.4    
        190.4       190.4       190.4       190.4       190.4       190.4       190.4       190.4       190.4       190.4    
        190.4       190.4       190.4       190.4       190.4       190.4       190.4       190.4       190.4       190.4    
        190.4       190.4       190.4       190.4       190.4       190.4       190.4       190.4       190.4       190.4    
        190.4       190.4       190.4       190.4       190.4       190.4       190.4       190.4       190.4       190.4    

 HEAD WILL BE SAVED ON UNIT   51 AT END OF TIME STEP    3, STRESS PERIOD   11

 DRAWDOWN WILL BE SAVED ON UNIT   52 AT END OF TIME STEP    3, STRESS PERIOD   11
1
  VOLUMETRIC BUDGET FOR ENTIRE MODEL AT END OF TIME STEP    3, STRESS PERIOD  11
  ------------------------------------------------------------------------------

     CUMULATIVE VOLUMES      L**3       RATES FOR THIS TIME STEP      L**3/T
     ------------------                 ------------------------

           IN:                                      IN:
           ---                                      ---
             STORAGE =           0.7984               STORAGE =       4.8553E-05
       CONSTANT HEAD =           0.0000         CONSTANT HEAD =           0.0000
               WELLS =           0.0000                 WELLS =           0.0000
            RECHARGE =   128019504.0000              RECHARGE =       37620.0000
    INST. IB STORAGE =           1.0663      INST. IB STORAGE =       9.4585E-07
    DELAY IB STORAGE =           2.9968      DELAY IB STORAGE =       2.1830E-03

            TOTAL IN =   128019504.0000              TOTAL IN =       37620.0039

          OUT:                                     OUT:
          ----                                     ----
             STORAGE =           0.8175               STORAGE =       7.8117E-04
       CONSTANT HEAD =   128019504.0000         CONSTANT HEAD =       37620.0000
               WELLS =           0.0000                 WELLS =           0.0000
            RECHARGE =           0.0000              RECHARGE =           0.0000
    INST. IB STORAGE =           1.0928      INST. IB STORAGE =       1.2332E-03
    DELAY IB STORAGE =           2.8831      DELAY IB STORAGE =       8.7925E-04

           TOTAL OUT =   128019504.0000             TOTAL OUT =       37620.0000

            IN - OUT =           0.0000              IN - OUT =       3.9062E-03

 PERCENT DISCREPANCY =           0.00     PERCENT DISCREPANCY =           0.00






         TIME SUMMARY AT END OF TIME STEP    3 IN STRESS PERIOD   11
                    SECONDS     MINUTES      HOURS       DAYS        YEARS
                    -----------------------------------------------------------
   TIME STEP LENGTH 4.18152E+06  69692.      1161.5      48.397     0.13250    
 STRESS PERIOD TIME 9.87236E+06 1.64539E+05  2742.3      114.26     0.31284    
         TOTAL TIME 2.94016E+08 4.90027E+06  81671.      3403.0      9.3168    
1
 
 SOLVING FOR HEAD 
     2 ITERATIONS FOR TIME STEP   4 IN STRESS PERIOD   11

 OUTPUT CONTROL FOR STRESS PERIOD   11   TIME STEP    4
    SAVE HEAD FOR ALL LAYERS
    SAVE DRAWDOWN FOR ALL LAYERS
    SAVE BUDGET
    PRINT HEAD FOR ALL LAYERS
    PRINT BUDGET
1
              HEAD IN LAYER   1 AT END OF TIME STEP   4 IN STRESS PERIOD   11
  ---------------------------------------------------------------------------

            1           2           3           4           5           6           7           8           9          10
           11          12          13          14          15          16          17          18          19          20
           21          22          23          24          25          26          27          28          29          30
           31          32          33          34          35          36          37          38          39          40
           41          42          43          44          45          46          47          48          49          50
           51          52          53          54          55          56          57          58          59          60
           61          62          63          64          65          66          67          68          69          70
           71          72          73          74          75          76          77          78          79          80
           81          82          83          84          85          86          87          88          89          90
           91          92          93          94          95          96          97          98          99         100
 ........................................................................................................................
   1    10.00       31.68       52.10       71.32       89.40       106.4       122.3       137.3       151.2       164.3    
        176.4       187.6       198.0       207.6       216.3       224.3       231.4       237.8       243.5       248.4    
        252.6       256.1       258.9       260.9       262.3       263.0       0.000       0.000       0.000       0.000    
        0.000       0.000       0.000       0.000       0.000       0.000       0.000       0.000       0.000       0.000    
        0.000       0.000       0.000       0.000       0.000       0.000       0.000       0.000       0.000       0.000    
        0.000       0.000       0.000       0.000       0.000       0.000       0.000       0.000       0.000       0.000    
        0.000       0.000       0.000       0.000       0.000       0.000       0.000       0.000       0.000       294.8    
        294.2       293.0       291.2       288.8       285.9       282.3       278.2       273.4       268.1       262.2    
        255.7       248.5       240.8       232.5       223.5       213.9       203.8       192.9       181.5       169.3    
        156.6       143.1       129.0       114.2       98.68       82.45       65.48       47.77       29.28       10.00    
1
              HEAD IN LAYER   2 AT END OF TIME STEP   4 IN STRESS PERIOD   11
  ---------------------------------------------------------------------------

            1           2           3           4           5           6           7           8           9          10
           11          12          13          14          15          16          17          18          19          20
           21          22          23          24          25          26          27          28          29          30
           31          32          33          34          35          36          37          38          39          40
           41          42          43          44          45          46          47          48          49          50
           51          52          53          54          55          56          57          58          59          60
           61          62          63          64          65          66          67          68          69          70
           71          72          73          74          75          76          77          78          79          80
           81          82          83          84          85          86          87          88          89          90
           91          92          93          94          95          96          97          98          99         100
 ........................................................................................................................
   1    187.1       187.1       187.2       187.3       187.4       187.5       187.7       187.8       188.0       188.1    
        188.3       188.5       188.7       188.8       189.0       189.2       189.3       189.5       189.6       189.7    
        189.8       189.9       190.0       190.1       190.2       190.2       190.3       190.3       190.4       190.4    
        190.4       190.5       190.5       190.5       190.6       190.6       190.7       190.7       190.7       190.8    
        190.8       190.9       190.9       190.9       191.0       191.0       191.1       191.1       191.1       191.2    
        191.2       191.3       191.3       191.4       191.4       191.4       191.5       191.5       191.6       191.6    
        191.6       191.7       191.7       191.8       191.8       191.9       191.9       192.0       192.0       192.0    
        192.1       192.1       192.1       192.0       192.0       191.9       191.8       191.7       191.6       191.5    
        191.4       191.2       191.1       190.9       190.7       190.5       190.3       190.1       189.9       189.8    
        189.6       189.4       189.2       189.1       188.9       188.8       188.7       188.6       188.5       188.5    
1
              HEAD IN LAYER   3 AT END OF TIME STEP   4 IN STRESS PERIOD   11
  ---------------------------------------------------------------------------

            1           2           3           4           5           6           7           8           9          10
           11          12          13          14          15          16          17          18          19          20
           21          22          23          24          25          26          27          28          29          30
           31          32          33          34          35          36          37          38          39          40
           41          42          43          44          45          46          47          48          49          50
           51          52          53          54          55          56          57          58          59          60
           61          62          63          64          65          66          67          68          69          70
           71          72          73          74          75          76          77          78          79          80
           81          82          83          84          85          86          87          88          89          90
           91          92          93          94          95          96          97          98          99         100
 ........................................................................................................................
   1    190.1       190.1       190.1       190.1       190.1       190.1       190.1       190.1       190.1       190.1    
        190.1       190.1       190.1       190.1       190.1       190.1       190.1       190.1       190.2       190.2    
        190.2       190.2       190.2       190.2       190.2       190.2       190.2       190.2       190.2       190.2    
        190.2       190.2       190.3       190.3       190.3       190.3       190.3       190.3       190.3       190.3    
        190.3       190.3       190.3       190.3       190.3       190.3       190.3       190.3       190.4       190.4    
        190.4       190.4       190.4       190.4       190.4       190.4       190.4       190.4       190.4       190.4    
        190.4       190.4       190.4       190.4       190.4       190.4       190.4       190.4       190.4       190.4    
        190.4       190.4       190.4       190.4       190.4       190.4       190.4       190.4       190.4       190.4    
        190.4       190.4       190.4       190.4       190.4       190.4       190.4       190.4       190.4       190.4    
        190.4       190.4       190.4       190.4       190.4       190.4       190.4       190.4       190.4       190.4    

 HEAD WILL BE SAVED ON UNIT   51 AT END OF TIME STEP    4, STRESS PERIOD   11

 DRAWDOWN WILL BE SAVED ON UNIT   52 AT END OF TIME STEP    4, STRESS PERIOD   11
1
  VOLUMETRIC BUDGET FOR ENTIRE MODEL AT END OF TIME STEP    4, STRESS PERIOD  11
  ------------------------------------------------------------------------------

     CUMULATIVE VOLUMES      L**3       RATES FOR THIS TIME STEP      L**3/T
     ------------------                 ------------------------

           IN:                                      IN:
           ---                                      ---
             STORAGE =           0.8229               STORAGE =       3.8985E-04
       CONSTANT HEAD =           0.0000         CONSTANT HEAD =           0.0000
               WELLS =           0.0000                 WELLS =           0.0000
            RECHARGE =   130386424.0000              RECHARGE =       37620.0000
    INST. IB STORAGE =           1.0979      INST. IB STORAGE =       5.0215E-04
    DELAY IB STORAGE =           3.0025      DELAY IB STORAGE =       9.0872E-05

            TOTAL IN =   130386424.0000              TOTAL IN =       37620.0000

          OUT:                                     OUT:
          ----                                     ----
             STORAGE =           0.8175               STORAGE =           0.0000
       CONSTANT HEAD =   130386424.0000         CONSTANT HEAD =       37620.0000
               WELLS =           0.0000                 WELLS =           0.0000
            RECHARGE =           0.0000              RECHARGE =           0.0000
    INST. IB STORAGE =           1.0928      INST. IB STORAGE =           0.0000
    DELAY IB STORAGE =           2.9798      DELAY IB STORAGE =       1.5368E-03

           TOTAL OUT =   130386424.0000             TOTAL OUT =       37620.0000

            IN - OUT =           0.0000              IN - OUT =           0.0000

 PERCENT DISCREPANCY =           0.00     PERCENT DISCREPANCY =           0.00






         TIME SUMMARY AT END OF TIME STEP    4 IN STRESS PERIOD   11
                    SECONDS     MINUTES      HOURS       DAYS        YEARS
                    -----------------------------------------------------------
   TIME STEP LENGTH 5.43598E+06  90600.      1510.0      62.916     0.17226    
 STRESS PERIOD TIME 1.53083E+07 2.55139E+05  4252.3      177.18     0.48509    
         TOTAL TIME 2.99452E+08 4.99087E+06  83181.      3465.9      9.4891    
1
 
 SOLVING FOR HEAD 
     1 ITERATIONS FOR TIME STEP   5 IN STRESS PERIOD   11

 MAXIMUM HEAD CHANGE FOR EACH ITERATION:

    HEAD CHANGE   HEAD CHANGE   HEAD CHANGE   HEAD CHANGE   HEAD CHANGE
  LAYER,ROW,COL LAYER,ROW,COL LAYER,ROW,COL LAYER,ROW,COL LAYER,ROW,COL
 ----------------------------------------------------------------------
    -0.8294E-04
  (  3,  1, 86)


 OUTPUT CONTROL FOR STRESS PERIOD   11   TIME STEP    5
    SAVE HEAD FOR ALL LAYERS
    SAVE DRAWDOWN FOR ALL LAYERS
    SAVE BUDGET
    PRINT HEAD FOR ALL LAYERS
    PRINT BUDGET
1
              HEAD IN LAYER   1 AT END OF TIME STEP   5 IN STRESS PERIOD   11
  ---------------------------------------------------------------------------

            1           2           3           4           5           6           7           8           9          10
           11          12          13          14          15          16          17          18          19          20
           21          22          23          24          25          26          27          28          29          30
           31          32          33          34          35          36          37          38          39          40
           41          42          43          44          45          46          47          48          49          50
           51          52          53          54          55          56          57          58          59          60
           61          62          63          64          65          66          67          68          69          70
           71          72          73          74          75          76          77          78          79          80
           81          82          83          84          85          86          87          88          89          90
           91          92          93          94          95          96          97          98          99         100
 ........................................................................................................................
   1    10.00       31.68       52.10       71.32       89.40       106.4       122.3       137.3       151.2       164.3    
        176.4       187.6       198.0       207.6       216.3       224.3       231.4       237.8       243.5       248.4    
        252.6       256.1       258.9       260.9       262.3       263.0       0.000       0.000       0.000       0.000    
        0.000       0.000       0.000       0.000       0.000       0.000       0.000       0.000       0.000       0.000    
        0.000       0.000       0.000       0.000       0.000       0.000       0.000       0.000       0.000       0.000    
        0.000       0.000       0.000       0.000       0.000       0.000       0.000       0.000       0.000       0.000    
        0.000       0.000       0.000       0.000       0.000       0.000       0.000       0.000       0.000       294.8    
        294.2       293.0       291.2       288.8       285.9       282.3       278.2       273.4       268.1       262.2    
        255.7       248.5       240.8       232.5       223.5       213.9       203.8       192.9       181.5       169.3    
        156.6       143.1       129.0       114.2       98.68       82.45       65.48       47.77       29.28       10.00    
1
              HEAD IN LAYER   2 AT END OF TIME STEP   5 IN STRESS PERIOD   11
  ---------------------------------------------------------------------------

            1           2           3           4           5           6           7           8           9          10
           11          12          13          14          15          16          17          18          19          20
           21          22          23          24          25          26          27          28          29          30
           31          32          33          34          35          36          37          38          39          40
           41          42          43          44          45          46          47          48          49          50
           51          52          53          54          55          56          57          58          59          60
           61          62          63          64          65          66          67          68          69          70
           71          72          73          74          75          76          77          78          79          80
           81          82          83          84          85          86          87          88          89          90
           91          92          93          94          95          96          97          98          99         100
 ........................................................................................................................
   1    187.1       187.1       187.2       187.3       187.4       187.5       187.7       187.8       188.0       188.1    
        188.3       188.5       188.7       188.8       189.0       189.2       189.3       189.5       189.6       189.7    
        189.8       189.9       190.0       190.1       190.2       190.2       190.3       190.3       190.4       190.4    
        190.4       190.5       190.5       190.5       190.6       190.6       190.7       190.7       190.7       190.8    
        190.8       190.9       190.9       190.9       191.0       191.0       191.1       191.1       191.1       191.2    
        191.2       191.3       191.3       191.4       191.4       191.4       191.5       191.5       191.6       191.6    
        191.6       191.7       191.7       191.8       191.8       191.9       191.9       192.0       192.0       192.0    
        192.1       192.1       192.1       192.0       192.0       191.9       191.8       191.7       191.6       191.5    
        191.4       191.2       191.1       190.9       190.7       190.5       190.3       190.1       189.9       189.8    
        189.6       189.4       189.2       189.1       188.9       188.8       188.7       188.6       188.5       188.5    
1
              HEAD IN LAYER   3 AT END OF TIME STEP   5 IN STRESS PERIOD   11
  ---------------------------------------------------------------------------

            1           2           3           4           5           6           7           8           9          10
           11          12          13          14          15          16          17          18          19          20
           21          22          23          24          25          26          27          28          29          30
           31          32          33          34          35          36          37          38          39          40
           41          42          43          44          45          46          47          48          49          50
           51          52          53          54          55          56          57          58          59          60
           61          62          63          64          65          66          67          68          69          70
           71          72          73          74          75          76          77          78          79          80
           81          82          83          84          85          86          87          88          89          90
           91          92          93          94          95          96          97          98          99         100
 ........................................................................................................................
   1    190.1       190.1       190.1       190.1       190.1       190.1       190.1       190.1       190.1       190.1    
        190.1       190.1       190.1       190.1       190.1       190.1       190.1       190.1       190.2       190.2    
        190.2       190.2       190.2       190.2       190.2       190.2       190.2       190.2       190.2       190.2    
        190.2       190.2       190.3       190.3       190.3       190.3       190.3       190.3       190.3       190.3    
        190.3       190.3       190.3       190.3       190.3       190.3       190.3       190.3       190.4       190.4    
        190.4       190.4       190.4       190.4       190.4       190.4       190.4       190.4       190.4       190.4    
        190.4       190.4       190.4       190.4       190.4       190.4       190.4       190.4       190.4       190.4    
        190.4       190.4       190.4       190.4       190.4       190.4       190.4       190.4       190.4       190.4    
        190.4       190.4       190.4       190.4       190.4       190.4       190.4       190.4       190.4       190.4    
        190.4       190.4       190.4       190.4       190.4       190.4       190.4       190.4       190.4       190.4    

 HEAD WILL BE SAVED ON UNIT   51 AT END OF TIME STEP    5, STRESS PERIOD   11

 DRAWDOWN WILL BE SAVED ON UNIT   52 AT END OF TIME STEP    5, STRESS PERIOD   11
1
  VOLUMETRIC BUDGET FOR ENTIRE MODEL AT END OF TIME STEP    5, STRESS PERIOD  11
  ------------------------------------------------------------------------------

     CUMULATIVE VOLUMES      L**3       RATES FOR THIS TIME STEP      L**3/T
     ------------------                 ------------------------

           IN:                                      IN:
           ---                                      ---
             STORAGE =           0.8325               STORAGE =       1.1719E-04
       CONSTANT HEAD =           0.0000         CONSTANT HEAD =           0.0000
               WELLS =           0.0000                 WELLS =           0.0000
            RECHARGE =   133463416.0000              RECHARGE =       37620.0000
    INST. IB STORAGE =           1.1135      INST. IB STORAGE =       1.9066E-04
    DELAY IB STORAGE =           3.0345      DELAY IB STORAGE =       3.9138E-04

            TOTAL IN =   133463416.0000              TOTAL IN =       37620.0000

          OUT:                                     OUT:
          ----                                     ----
             STORAGE =           0.8227               STORAGE =       6.4642E-05
       CONSTANT HEAD =   133463416.0000         CONSTANT HEAD =       37620.0000
               WELLS =           0.0000                 WELLS =           0.0000
            RECHARGE =           0.0000              RECHARGE =           0.0000
    INST. IB STORAGE =           1.0929      INST. IB STORAGE =       1.6790E-06
    DELAY IB STORAGE =           3.0285      DELAY IB STORAGE =       5.9582E-04

           TOTAL OUT =   133463416.0000             TOTAL OUT =       37620.0000

            IN - OUT =           0.0000              IN - OUT =           0.0000

 PERCENT DISCREPANCY =           0.00     PERCENT DISCREPANCY =           0.00






         TIME SUMMARY AT END OF TIME STEP    5 IN STRESS PERIOD   11
                    SECONDS     MINUTES      HOURS       DAYS        YEARS
                    -----------------------------------------------------------
   TIME STEP LENGTH 7.06678E+06 1.17780E+05  1963.0      81.791     0.22393    
 STRESS PERIOD TIME 2.23751E+07 3.72919E+05  6215.3      258.97     0.70902    
         TOTAL TIME 3.06519E+08 5.10865E+06  85144.      3547.7      9.7130    
1
 
 SOLVING FOR HEAD 
     2 ITERATIONS FOR TIME STEP   6 IN STRESS PERIOD   11

 MAXIMUM HEAD CHANGE FOR EACH ITERATION:

    HEAD CHANGE   HEAD CHANGE   HEAD CHANGE   HEAD CHANGE   HEAD CHANGE
  LAYER,ROW,COL LAYER,ROW,COL LAYER,ROW,COL LAYER,ROW,COL LAYER,ROW,COL
 ----------------------------------------------------------------------
     0.1312E-03    0.5421E-04
  (  3,  1,  8) (  2,  1, 42)


 OUTPUT CONTROL FOR STRESS PERIOD   11   TIME STEP    6
    SAVE HEAD FOR ALL LAYERS
    SAVE DRAWDOWN FOR ALL LAYERS
    SAVE BUDGET
    PRINT HEAD FOR ALL LAYERS
    PRINT BUDGET
1
              HEAD IN LAYER   1 AT END OF TIME STEP   6 IN STRESS PERIOD   11
  ---------------------------------------------------------------------------

            1           2           3           4           5           6           7           8           9          10
           11          12          13          14          15          16          17          18          19          20
           21          22          23          24          25          26          27          28          29          30
           31          32          33          34          35          36          37          38          39          40
           41          42          43          44          45          46          47          48          49          50
           51          52          53          54          55          56          57          58          59          60
           61          62          63          64          65          66          67          68          69          70
           71          72          73          74          75          76          77          78          79          80
           81          82          83          84          85          86          87          88          89          90
           91          92          93          94          95          96          97          98          99         100
 ........................................................................................................................
   1    10.00       31.68       52.10       71.32       89.40       106.4       122.3       137.3       151.2       164.3    
        176.4       187.6       198.0       207.6       216.3       224.3       231.4       237.8       243.5       248.4    
        252.6       256.1       258.9       260.9       262.3       263.0       0.000       0.000       0.000       0.000    
        0.000       0.000       0.000       0.000       0.000       0.000       0.000       0.000       0.000       0.000    
        0.000       0.000       0.000       0.000       0.000       0.000       0.000       0.000       0.000       0.000    
        0.000       0.000       0.000       0.000       0.000       0.000       0.000       0.000       0.000       0.000    
        0.000       0.000       0.000       0.000       0.000       0.000       0.000       0.000       0.000       294.8    
        294.2       293.0       291.2       288.8       285.9       282.3       278.2       273.4       268.1       262.2    
        255.7       248.5       240.8       232.5       223.5       213.9       203.8       192.9       181.5       169.3    
        156.6       143.1       129.0       114.2       98.68       82.45       65.48       47.77       29.28       10.00    
1
              HEAD IN LAYER   2 AT END OF TIME STEP   6 IN STRESS PERIOD   11
  ---------------------------------------------------------------------------

            1           2           3           4           5           6           7           8           9          10
           11          12          13          14          15          16          17          18          19          20
           21          22          23          24          25          26          27          28          29          30
           31          32          33          34          35          36          37          38          39          40
           41          42          43          44          45          46          47          48          49          50
           51          52          53          54          55          56          57          58          59          60
           61          62          63          64          65          66          67          68          69          70
           71          72          73          74          75          76          77          78          79          80
           81          82          83          84          85          86          87          88          89          90
           91          92          93          94          95          96          97          98          99         100
 ........................................................................................................................
   1    187.1       187.1       187.2       187.3       187.4       187.5       187.7       187.8       188.0       188.1    
        188.3       188.5       188.7       188.8       189.0       189.2       189.3       189.5       189.6       189.7    
        189.8       189.9       190.0       190.1       190.2       190.2       190.3       190.3       190.4       190.4    
        190.4       190.5       190.5       190.5       190.6       190.6       190.7       190.7       190.7       190.8    
        190.8       190.9       190.9       190.9       191.0       191.0       191.1       191.1       191.1       191.2    
        191.2       191.3       191.3       191.4       191.4       191.4       191.5       191.5       191.6       191.6    
        191.6       191.7       191.7       191.8       191.8       191.9       191.9       192.0       192.0       192.0    
        192.1       192.1       192.1       192.0       192.0       191.9       191.8       191.7       191.6       191.5    
        191.4       191.2       191.1       190.9       190.7       190.5       190.3       190.1       189.9       189.8    
        189.6       189.4       189.2       189.1       188.9       188.8       188.7       188.6       188.5       188.5    
1
              HEAD IN LAYER   3 AT END OF TIME STEP   6 IN STRESS PERIOD   11
  ---------------------------------------------------------------------------

            1           2           3           4           5           6           7           8           9          10
           11          12          13          14          15          16          17          18          19          20
           21          22          23          24          25          26          27          28          29          30
           31          32          33          34          35          36          37          38          39          40
           41          42          43          44          45          46          47          48          49          50
           51          52          53          54          55          56          57          58          59          60
           61          62          63          64          65          66          67          68          69          70
           71          72          73          74          75          76          77          78          79          80
           81          82          83          84          85          86          87          88          89          90
           91          92          93          94          95          96          97          98          99         100
 ........................................................................................................................
   1    190.1       190.1       190.1       190.1       190.1       190.1       190.1       190.1       190.1       190.1    
        190.1       190.1       190.1       190.1       190.1       190.1       190.1       190.1       190.2       190.2    
        190.2       190.2       190.2       190.2       190.2       190.2       190.2       190.2       190.2       190.2    
        190.2       190.2       190.3       190.3       190.3       190.3       190.3       190.3       190.3       190.3    
        190.3       190.3       190.3       190.3       190.3       190.3       190.3       190.3       190.4       190.4    
        190.4       190.4       190.4       190.4       190.4       190.4       190.4       190.4       190.4       190.4    
        190.4       190.4       190.4       190.4       190.4       190.4       190.4       190.4       190.4       190.4    
        190.4       190.4       190.4       190.4       190.4       190.4       190.4       190.4       190.4       190.4    
        190.4       190.4       190.4       190.4       190.4       190.4       190.4       190.4       190.4       190.4    
        190.4       190.4       190.4       190.4       190.4       190.4       190.4       190.4       190.4       190.4    

 HEAD WILL BE SAVED ON UNIT   51 AT END OF TIME STEP    6, STRESS PERIOD   11

 DRAWDOWN WILL BE SAVED ON UNIT   52 AT END OF TIME STEP    6, STRESS PERIOD   11
1
  VOLUMETRIC BUDGET FOR ENTIRE MODEL AT END OF TIME STEP    6, STRESS PERIOD  11
  ------------------------------------------------------------------------------

     CUMULATIVE VOLUMES      L**3       RATES FOR THIS TIME STEP      L**3/T
     ------------------                 ------------------------

           IN:                                      IN:
           ---                                      ---
             STORAGE =           0.8366               STORAGE =       3.8675E-05
       CONSTANT HEAD =           0.0000         CONSTANT HEAD =           0.0000
               WELLS =           0.0000                 WELLS =           0.0000
            RECHARGE =   137463504.0000              RECHARGE =       37620.0000
    INST. IB STORAGE =           1.1136      INST. IB STORAGE =       8.6103E-07
    DELAY IB STORAGE =           3.1349      DELAY IB STORAGE =       9.4417E-04

            TOTAL IN =   137463504.0000              TOTAL IN =       37620.0000

          OUT:                                     OUT:
          ----                                     ----
             STORAGE =           0.8456               STORAGE =       2.1528E-04
       CONSTANT HEAD =   137463504.0000         CONSTANT HEAD =       37620.0000
               WELLS =           0.0000                 WELLS =           0.0000
            RECHARGE =           0.0000              RECHARGE =           0.0000
    INST. IB STORAGE =           1.1248      INST. IB STORAGE =       2.9921E-04
    DELAY IB STORAGE =           3.0350      DELAY IB STORAGE =       6.0852E-05

           TOTAL OUT =   137463504.0000             TOTAL OUT =       37620.0000

            IN - OUT =           0.0000              IN - OUT =           0.0000

 PERCENT DISCREPANCY =           0.00     PERCENT DISCREPANCY =           0.00






         TIME SUMMARY AT END OF TIME STEP    6 IN STRESS PERIOD   11
                    SECONDS     MINUTES      HOURS       DAYS        YEARS
                    -----------------------------------------------------------
   TIME STEP LENGTH 9.18681E+06 1.53113E+05  2551.9      106.33     0.29111    
 STRESS PERIOD TIME 3.15619E+07 5.26032E+05  8767.2      365.30      1.0001    
         TOTAL TIME 3.15706E+08 5.26176E+06  87696.      3654.0      10.004    
1

                               VOLUMETRIC BUDGET FOR SYSTEMS OF DELAY INTERBEDS
                                          AT END OF TIME STEP  6 IN STRESS PERIOD 11

          |   C U M U L A T I V E   V O L U M E S   L**3           | R A T E S   F O R  T H I S  T I M E  S T E P   L**3/T  |
   SYSTEM |    CHANGE IN     BOUNDARY                    PERCENT   |    CHANGE IN     BOUNDARY                    PERCENT   |
   NUMBER |     STORAGE        FLOW           SUM      DISCREPANCY |     STORAGE        FLOW           SUM      DISCREPANCY |
  --------|--------------------------------------------------------|--------------------------------------------------------|
      1    0.30884E-01   -0.30884E-01   -0.20489E-07   -0.66342E-04    0.28632E-03   -0.28632E-03    0.29104E-10    0.10165E-04
      2    0.69085E-01   -0.69085E-01   -0.18626E-06   -0.26962E-03    0.59700E-03   -0.59700E-03   -0.58208E-10   -0.97501E-05
  --------|--------------------------------------------------------|--------------------------------------------------------|
 TOTALS:    0.99969E-01   -0.99969E-01   -0.20862E-06   -0.20868E-03    0.88332E-03   -0.88332E-03   -0.58208E-10   -0.65896E-05

 Run end date and time (yyyy/mm/dd hh:mm:ss): 2024/05/29 16:54:26
 Elapsed run time:  0.024 Seconds

